<?xml version="1.0" encoding="UTF-8"?>

<!-- generated on 2022-04-30 17:05:31 by Eclipse SUMO netedit Version 1.10.0
<configuration xmlns:xsi="http://www.w3.org/2001/XMLSchema-instance" xsi:noNamespaceSchemaLocation="http://sumo.dlr.de/xsd/netconvertConfiguration.xsd">

    <input>
        <sumo-net-file value="C:\Users\sam\Documents\Work\Final%20Year\Dissertation\diss\Simulation\simple\ltn\ltnGrid2.net.xml"/>
    </input>

    <output>
        <output-file value="C:\Users\sam\Documents\Work\Final%20Year\Dissertation\diss\Simulation\simple\ltn\ltnGrid.net.xml"/>
    </output>

    <processing>
        <geometry.min-radius.fix.railways value="false"/>
        <geometry.max-grade.fix value="false"/>
        <offset.disable-normalization value="true"/>
        <lefthand value="true"/>
    </processing>

    <junctions>
        <no-turnarounds value="true"/>
        <junctions.corner-detail value="5"/>
        <junctions.limit-turn-speed value="5.5"/>
        <rectangular-lane-cut value="false"/>
    </junctions>

    <pedestrian>
        <walkingareas value="false"/>
    </pedestrian>

    <report>
        <aggregate-warnings value="5"/>
    </report>

</configuration>
-->

<net version="1.9" junctionCornerDetail="5" lefthand="true" limitTurnSpeed="5.50" xmlns:xsi="http://www.w3.org/2001/XMLSchema-instance" xsi:noNamespaceSchemaLocation="http://sumo.dlr.de/xsd/net_file.xsd">

    <location netOffset="0.00,0.00" convBoundary="100.00,100.00,800.00,800.00" origBoundary="-10000000000.00,-10000000000.00,10000000000.00,10000000000.00" projParameter="!"/>

    <edge id=":gneJ100_0" function="internal">
        <lane id=":gneJ100_0_0" index="0" speed="6.51" length="9.03" shape="198.40,192.80 198.05,195.25 197.00,197.00 195.25,198.05 192.80,198.40"/>
    </edge>
    <edge id=":gneJ100_1" function="internal">
        <lane id=":gneJ100_1_0" index="0" speed="13.89" length="14.40" shape="198.40,192.80 198.40,207.20"/>
    </edge>
    <edge id=":gneJ100_2" function="internal">
        <lane id=":gneJ100_2_0" index="0" speed="8.00" length="5.93" shape="198.40,192.80 198.95,196.65 200.00,198.40"/>
    </edge>
    <edge id=":gneJ100_12" function="internal">
        <lane id=":gneJ100_12_0" index="0" speed="8.00" length="8.26" shape="200.00,198.40 200.60,199.40 203.35,201.05 207.20,201.60"/>
    </edge>
    <edge id=":gneJ100_3" function="internal">
        <lane id=":gneJ100_3_0" index="0" speed="6.51" length="9.03" shape="207.20,198.40 204.75,198.05 203.00,197.00 201.95,195.25 201.60,192.80"/>
    </edge>
    <edge id=":gneJ100_4" function="internal">
        <lane id=":gneJ100_4_0" index="0" speed="13.89" length="14.40" shape="207.20,198.40 192.80,198.40"/>
    </edge>
    <edge id=":gneJ100_5" function="internal">
        <lane id=":gneJ100_5_0" index="0" speed="8.00" length="14.19" shape="207.20,198.40 203.35,198.95 200.60,200.60 198.95,203.35 198.40,207.20"/>
    </edge>
    <edge id=":gneJ100_6" function="internal">
        <lane id=":gneJ100_6_0" index="0" speed="6.51" length="9.03" shape="201.60,207.20 201.95,204.75 203.00,203.00 204.75,201.95 207.20,201.60"/>
    </edge>
    <edge id=":gneJ100_7" function="internal">
        <lane id=":gneJ100_7_0" index="0" speed="13.89" length="14.40" shape="201.60,207.20 201.60,192.80"/>
    </edge>
    <edge id=":gneJ100_8" function="internal">
        <lane id=":gneJ100_8_0" index="0" speed="8.00" length="5.93" shape="201.60,207.20 201.05,203.35 200.00,201.60"/>
    </edge>
    <edge id=":gneJ100_13" function="internal">
        <lane id=":gneJ100_13_0" index="0" speed="8.00" length="8.26" shape="200.00,201.60 199.40,200.60 196.65,198.95 192.80,198.40"/>
    </edge>
    <edge id=":gneJ100_9" function="internal">
        <lane id=":gneJ100_9_0" index="0" speed="6.51" length="9.03" shape="192.80,201.60 195.25,201.95 197.00,203.00 198.05,204.75 198.40,207.20"/>
    </edge>
    <edge id=":gneJ100_10" function="internal">
        <lane id=":gneJ100_10_0" index="0" speed="13.89" length="14.40" shape="192.80,201.60 207.20,201.60"/>
    </edge>
    <edge id=":gneJ100_11" function="internal">
        <lane id=":gneJ100_11_0" index="0" speed="8.00" length="14.19" shape="192.80,201.60 196.65,201.05 199.40,199.40 201.05,196.65 201.60,192.80"/>
    </edge>
    <edge id=":gneJ101_0" function="internal">
        <lane id=":gneJ101_0_0" index="0" speed="6.51" length="9.03" shape="298.40,192.80 298.05,195.25 297.00,197.00 295.25,198.05 292.80,198.40"/>
    </edge>
    <edge id=":gneJ101_1" function="internal">
        <lane id=":gneJ101_1_0" index="0" speed="8.00" length="14.19" shape="298.40,192.80 298.95,196.65 300.60,199.40 303.35,201.05 307.20,201.60"/>
    </edge>
    <edge id=":gneJ101_2" function="internal">
        <lane id=":gneJ101_2_0" index="0" speed="6.51" length="9.03" shape="307.20,198.40 304.75,198.05 303.00,197.00 301.95,195.25 301.60,192.80"/>
    </edge>
    <edge id=":gneJ101_3" function="internal">
        <lane id=":gneJ101_3_0" index="0" speed="13.89" length="14.40" shape="307.20,198.40 292.80,198.40"/>
    </edge>
    <edge id=":gneJ101_4" function="internal">
        <lane id=":gneJ101_4_0" index="0" speed="3.65" length="4.67" shape="301.60,207.20 300.80,206.00 300.00,205.60 299.20,206.00 298.40,207.20"/>
    </edge>
    <edge id=":gneJ101_5" function="internal">
        <lane id=":gneJ101_5_0" index="0" speed="13.89" length="14.40" shape="292.80,201.60 307.20,201.60"/>
    </edge>
    <edge id=":gneJ101_6" function="internal">
        <lane id=":gneJ101_6_0" index="0" speed="8.00" length="14.19" shape="292.80,201.60 296.65,201.05 299.40,199.40 301.05,196.65 301.60,192.80"/>
    </edge>
    <edge id=":gneJ102_0" function="internal">
        <lane id=":gneJ102_0_0" index="0" speed="6.51" length="9.03" shape="398.40,192.80 398.05,195.25 397.00,197.00 395.25,198.05 392.80,198.40"/>
    </edge>
    <edge id=":gneJ102_1" function="internal">
        <lane id=":gneJ102_1_0" index="0" speed="13.89" length="14.40" shape="398.40,192.80 398.40,207.20"/>
    </edge>
    <edge id=":gneJ102_2" function="internal">
        <lane id=":gneJ102_2_0" index="0" speed="8.00" length="5.93" shape="398.40,192.80 398.95,196.65 400.00,198.40"/>
    </edge>
    <edge id=":gneJ102_12" function="internal">
        <lane id=":gneJ102_12_0" index="0" speed="8.00" length="8.26" shape="400.00,198.40 400.60,199.40 403.35,201.05 407.20,201.60"/>
    </edge>
    <edge id=":gneJ102_3" function="internal">
        <lane id=":gneJ102_3_0" index="0" speed="6.51" length="9.03" shape="407.20,198.40 404.75,198.05 403.00,197.00 401.95,195.25 401.60,192.80"/>
    </edge>
    <edge id=":gneJ102_4" function="internal">
        <lane id=":gneJ102_4_0" index="0" speed="13.89" length="14.40" shape="407.20,198.40 392.80,198.40"/>
    </edge>
    <edge id=":gneJ102_5" function="internal">
        <lane id=":gneJ102_5_0" index="0" speed="8.00" length="14.19" shape="407.20,198.40 403.35,198.95 400.60,200.60 398.95,203.35 398.40,207.20"/>
    </edge>
    <edge id=":gneJ102_6" function="internal">
        <lane id=":gneJ102_6_0" index="0" speed="6.51" length="9.03" shape="401.60,207.20 401.95,204.75 403.00,203.00 404.75,201.95 407.20,201.60"/>
    </edge>
    <edge id=":gneJ102_7" function="internal">
        <lane id=":gneJ102_7_0" index="0" speed="13.89" length="14.40" shape="401.60,207.20 401.60,192.80"/>
    </edge>
    <edge id=":gneJ102_8" function="internal">
        <lane id=":gneJ102_8_0" index="0" speed="8.00" length="5.93" shape="401.60,207.20 401.05,203.35 400.00,201.60"/>
    </edge>
    <edge id=":gneJ102_13" function="internal">
        <lane id=":gneJ102_13_0" index="0" speed="8.00" length="8.26" shape="400.00,201.60 399.40,200.60 396.65,198.95 392.80,198.40"/>
    </edge>
    <edge id=":gneJ102_9" function="internal">
        <lane id=":gneJ102_9_0" index="0" speed="6.51" length="9.03" shape="392.80,201.60 395.25,201.95 397.00,203.00 398.05,204.75 398.40,207.20"/>
    </edge>
    <edge id=":gneJ102_10" function="internal">
        <lane id=":gneJ102_10_0" index="0" speed="13.89" length="14.40" shape="392.80,201.60 407.20,201.60"/>
    </edge>
    <edge id=":gneJ102_11" function="internal">
        <lane id=":gneJ102_11_0" index="0" speed="8.00" length="14.19" shape="392.80,201.60 396.65,201.05 399.40,199.40 401.05,196.65 401.60,192.80"/>
    </edge>
    <edge id=":gneJ103_0" function="internal">
        <lane id=":gneJ103_0_0" index="0" speed="6.51" length="9.03" shape="498.40,192.80 498.05,195.25 497.00,197.00 495.25,198.05 492.80,198.40"/>
    </edge>
    <edge id=":gneJ103_1" function="internal">
        <lane id=":gneJ103_1_0" index="0" speed="8.00" length="14.19" shape="498.40,192.80 498.95,196.65 500.60,199.40 503.35,201.05 507.20,201.60"/>
    </edge>
    <edge id=":gneJ103_2" function="internal">
        <lane id=":gneJ103_2_0" index="0" speed="6.51" length="9.03" shape="507.20,198.40 504.75,198.05 503.00,197.00 501.95,195.25 501.60,192.80"/>
    </edge>
    <edge id=":gneJ103_3" function="internal">
        <lane id=":gneJ103_3_0" index="0" speed="13.89" length="14.40" shape="507.20,198.40 492.80,198.40"/>
    </edge>
    <edge id=":gneJ103_4" function="internal">
        <lane id=":gneJ103_4_0" index="0" speed="3.65" length="4.67" shape="501.60,207.20 500.80,206.00 500.00,205.60 499.20,206.00 498.40,207.20"/>
    </edge>
    <edge id=":gneJ103_5" function="internal">
        <lane id=":gneJ103_5_0" index="0" speed="13.89" length="14.40" shape="492.80,201.60 507.20,201.60"/>
    </edge>
    <edge id=":gneJ103_6" function="internal">
        <lane id=":gneJ103_6_0" index="0" speed="8.00" length="14.19" shape="492.80,201.60 496.65,201.05 499.40,199.40 501.05,196.65 501.60,192.80"/>
    </edge>
    <edge id=":gneJ104_0" function="internal">
        <lane id=":gneJ104_0_0" index="0" speed="6.51" length="9.03" shape="598.40,192.80 598.05,195.25 597.00,197.00 595.25,198.05 592.80,198.40"/>
    </edge>
    <edge id=":gneJ104_1" function="internal">
        <lane id=":gneJ104_1_0" index="0" speed="8.00" length="14.19" shape="598.40,192.80 598.95,196.65 600.60,199.40 603.35,201.05 607.20,201.60"/>
    </edge>
    <edge id=":gneJ104_2" function="internal">
        <lane id=":gneJ104_2_0" index="0" speed="6.51" length="9.03" shape="607.20,198.40 604.75,198.05 603.00,197.00 601.95,195.25 601.60,192.80"/>
    </edge>
    <edge id=":gneJ104_3" function="internal">
        <lane id=":gneJ104_3_0" index="0" speed="13.89" length="14.40" shape="607.20,198.40 592.80,198.40"/>
    </edge>
    <edge id=":gneJ104_4" function="internal">
        <lane id=":gneJ104_4_0" index="0" speed="3.65" length="4.67" shape="601.60,207.20 600.80,206.00 600.00,205.60 599.20,206.00 598.40,207.20"/>
    </edge>
    <edge id=":gneJ104_5" function="internal">
        <lane id=":gneJ104_5_0" index="0" speed="13.89" length="14.40" shape="592.80,201.60 607.20,201.60"/>
    </edge>
    <edge id=":gneJ104_6" function="internal">
        <lane id=":gneJ104_6_0" index="0" speed="8.00" length="14.19" shape="592.80,201.60 596.65,201.05 599.40,199.40 601.05,196.65 601.60,192.80"/>
    </edge>
    <edge id=":gneJ105_0" function="internal">
        <lane id=":gneJ105_0_0" index="0" speed="6.51" length="9.03" shape="198.40,692.80 198.05,695.25 197.00,697.00 195.25,698.05 192.80,698.40"/>
    </edge>
    <edge id=":gneJ105_1" function="internal">
        <lane id=":gneJ105_1_0" index="0" speed="13.89" length="14.40" shape="198.40,692.80 198.40,707.20"/>
    </edge>
    <edge id=":gneJ105_2" function="internal">
        <lane id=":gneJ105_2_0" index="0" speed="8.00" length="5.93" shape="198.40,692.80 198.95,696.65 200.00,698.40"/>
    </edge>
    <edge id=":gneJ105_12" function="internal">
        <lane id=":gneJ105_12_0" index="0" speed="8.00" length="8.26" shape="200.00,698.40 200.60,699.40 203.35,701.05 207.20,701.60"/>
    </edge>
    <edge id=":gneJ105_3" function="internal">
        <lane id=":gneJ105_3_0" index="0" speed="6.51" length="9.03" shape="207.20,698.40 204.75,698.05 203.00,697.00 201.95,695.25 201.60,692.80"/>
    </edge>
    <edge id=":gneJ105_4" function="internal">
        <lane id=":gneJ105_4_0" index="0" speed="13.89" length="14.40" shape="207.20,698.40 192.80,698.40"/>
    </edge>
    <edge id=":gneJ105_5" function="internal">
        <lane id=":gneJ105_5_0" index="0" speed="8.00" length="14.19" shape="207.20,698.40 203.35,698.95 200.60,700.60 198.95,703.35 198.40,707.20"/>
    </edge>
    <edge id=":gneJ105_6" function="internal">
        <lane id=":gneJ105_6_0" index="0" speed="6.51" length="9.03" shape="201.60,707.20 201.95,704.75 203.00,703.00 204.75,701.95 207.20,701.60"/>
    </edge>
    <edge id=":gneJ105_7" function="internal">
        <lane id=":gneJ105_7_0" index="0" speed="13.89" length="14.40" shape="201.60,707.20 201.60,692.80"/>
    </edge>
    <edge id=":gneJ105_8" function="internal">
        <lane id=":gneJ105_8_0" index="0" speed="8.00" length="5.93" shape="201.60,707.20 201.05,703.35 200.00,701.60"/>
    </edge>
    <edge id=":gneJ105_13" function="internal">
        <lane id=":gneJ105_13_0" index="0" speed="8.00" length="8.26" shape="200.00,701.60 199.40,700.60 196.65,698.95 192.80,698.40"/>
    </edge>
    <edge id=":gneJ105_9" function="internal">
        <lane id=":gneJ105_9_0" index="0" speed="6.51" length="9.03" shape="192.80,701.60 195.25,701.95 197.00,703.00 198.05,704.75 198.40,707.20"/>
    </edge>
    <edge id=":gneJ105_10" function="internal">
        <lane id=":gneJ105_10_0" index="0" speed="13.89" length="14.40" shape="192.80,701.60 207.20,701.60"/>
    </edge>
    <edge id=":gneJ105_11" function="internal">
        <lane id=":gneJ105_11_0" index="0" speed="8.00" length="14.19" shape="192.80,701.60 196.65,701.05 199.40,699.40 201.05,696.65 201.60,692.80"/>
    </edge>
    <edge id=":gneJ106_0" function="internal">
        <lane id=":gneJ106_0_0" index="0" speed="3.65" length="4.67" shape="298.40,692.80 299.20,694.00 300.00,694.40 300.80,694.00 301.60,692.80"/>
    </edge>
    <edge id=":gneJ106_1" function="internal">
        <lane id=":gneJ106_1_0" index="0" speed="13.89" length="14.40" shape="307.20,698.40 292.80,698.40"/>
    </edge>
    <edge id=":gneJ106_2" function="internal">
        <lane id=":gneJ106_2_0" index="0" speed="8.00" length="14.19" shape="307.20,698.40 303.35,698.95 300.60,700.60 298.95,703.35 298.40,707.20"/>
    </edge>
    <edge id=":gneJ106_3" function="internal">
        <lane id=":gneJ106_3_0" index="0" speed="6.51" length="9.03" shape="301.60,707.20 301.95,704.75 303.00,703.00 304.75,701.95 307.20,701.60"/>
    </edge>
    <edge id=":gneJ106_4" function="internal">
        <lane id=":gneJ106_4_0" index="0" speed="8.00" length="14.19" shape="301.60,707.20 301.05,703.35 299.40,700.60 296.65,698.95 292.80,698.40"/>
    </edge>
    <edge id=":gneJ106_5" function="internal">
        <lane id=":gneJ106_5_0" index="0" speed="6.51" length="9.03" shape="292.80,701.60 295.25,701.95 297.00,703.00 298.05,704.75 298.40,707.20"/>
    </edge>
    <edge id=":gneJ106_6" function="internal">
        <lane id=":gneJ106_6_0" index="0" speed="13.89" length="14.40" shape="292.80,701.60 307.20,701.60"/>
    </edge>
    <edge id=":gneJ107_0" function="internal">
        <lane id=":gneJ107_0_0" index="0" speed="3.65" length="4.67" shape="398.40,692.80 399.20,694.00 400.00,694.40 400.80,694.00 401.60,692.80"/>
    </edge>
    <edge id=":gneJ107_1" function="internal">
        <lane id=":gneJ107_1_0" index="0" speed="13.89" length="14.40" shape="407.20,698.40 392.80,698.40"/>
    </edge>
    <edge id=":gneJ107_2" function="internal">
        <lane id=":gneJ107_2_0" index="0" speed="8.00" length="14.19" shape="407.20,698.40 403.35,698.95 400.60,700.60 398.95,703.35 398.40,707.20"/>
    </edge>
    <edge id=":gneJ107_3" function="internal">
        <lane id=":gneJ107_3_0" index="0" speed="6.51" length="9.03" shape="401.60,707.20 401.95,704.75 403.00,703.00 404.75,701.95 407.20,701.60"/>
    </edge>
    <edge id=":gneJ107_4" function="internal">
        <lane id=":gneJ107_4_0" index="0" speed="8.00" length="14.19" shape="401.60,707.20 401.05,703.35 399.40,700.60 396.65,698.95 392.80,698.40"/>
    </edge>
    <edge id=":gneJ107_5" function="internal">
        <lane id=":gneJ107_5_0" index="0" speed="6.51" length="9.03" shape="392.80,701.60 395.25,701.95 397.00,703.00 398.05,704.75 398.40,707.20"/>
    </edge>
    <edge id=":gneJ107_6" function="internal">
        <lane id=":gneJ107_6_0" index="0" speed="13.89" length="14.40" shape="392.80,701.60 407.20,701.60"/>
    </edge>
    <edge id=":gneJ108_0" function="internal">
        <lane id=":gneJ108_0_0" index="0" speed="6.51" length="9.03" shape="498.40,692.80 498.05,695.25 497.00,697.00 495.25,698.05 492.80,698.40"/>
    </edge>
    <edge id=":gneJ108_1" function="internal">
        <lane id=":gneJ108_1_0" index="0" speed="13.89" length="14.40" shape="498.40,692.80 498.40,707.20"/>
    </edge>
    <edge id=":gneJ108_2" function="internal">
        <lane id=":gneJ108_2_0" index="0" speed="8.00" length="5.93" shape="498.40,692.80 498.95,696.65 500.00,698.40"/>
    </edge>
    <edge id=":gneJ108_3" function="internal">
        <lane id=":gneJ108_3_0" index="0" speed="3.65" length="2.34" shape="498.40,692.80 499.20,694.00 500.00,694.40"/>
    </edge>
    <edge id=":gneJ108_13" function="internal">
        <lane id=":gneJ108_13_0" index="0" speed="8.00" length="8.26" shape="500.00,698.40 500.60,699.40 503.35,701.05 507.20,701.60"/>
    </edge>
    <edge id=":gneJ108_14" function="internal">
        <lane id=":gneJ108_14_0" index="0" speed="3.65" length="2.34" shape="500.00,694.40 500.80,694.00 501.60,692.80"/>
    </edge>
    <edge id=":gneJ108_4" function="internal">
        <lane id=":gneJ108_4_0" index="0" speed="6.51" length="9.03" shape="507.20,698.40 504.75,698.05 503.00,697.00 501.95,695.25 501.60,692.80"/>
    </edge>
    <edge id=":gneJ108_5" function="internal">
        <lane id=":gneJ108_5_0" index="0" speed="13.89" length="14.40" shape="507.20,698.40 492.80,698.40"/>
    </edge>
    <edge id=":gneJ108_6" function="internal">
        <lane id=":gneJ108_6_0" index="0" speed="8.00" length="14.19" shape="507.20,698.40 503.35,698.95 500.60,700.60 498.95,703.35 498.40,707.20"/>
    </edge>
    <edge id=":gneJ108_7" function="internal">
        <lane id=":gneJ108_7_0" index="0" speed="6.51" length="9.03" shape="501.60,707.20 501.95,704.75 503.00,703.00 504.75,701.95 507.20,701.60"/>
    </edge>
    <edge id=":gneJ108_8" function="internal">
        <lane id=":gneJ108_8_0" index="0" speed="13.89" length="14.40" shape="501.60,707.20 501.60,692.80"/>
    </edge>
    <edge id=":gneJ108_9" function="internal">
        <lane id=":gneJ108_9_0" index="0" speed="8.00" length="5.93" shape="501.60,707.20 501.05,703.35 500.00,701.60"/>
    </edge>
    <edge id=":gneJ108_15" function="internal">
        <lane id=":gneJ108_15_0" index="0" speed="8.00" length="8.26" shape="500.00,701.60 499.40,700.60 496.65,698.95 492.80,698.40"/>
    </edge>
    <edge id=":gneJ108_10" function="internal">
        <lane id=":gneJ108_10_0" index="0" speed="6.51" length="9.03" shape="492.80,701.60 495.25,701.95 497.00,703.00 498.05,704.75 498.40,707.20"/>
    </edge>
    <edge id=":gneJ108_11" function="internal">
        <lane id=":gneJ108_11_0" index="0" speed="13.89" length="14.40" shape="492.80,701.60 507.20,701.60"/>
    </edge>
    <edge id=":gneJ108_12" function="internal">
        <lane id=":gneJ108_12_0" index="0" speed="8.00" length="14.19" shape="492.80,701.60 496.65,701.05 499.40,699.40 501.05,696.65 501.60,692.80"/>
    </edge>
    <edge id=":gneJ109_0" function="internal">
        <lane id=":gneJ109_0_0" index="0" speed="3.65" length="4.67" shape="598.40,692.80 599.20,694.00 600.00,694.40 600.80,694.00 601.60,692.80"/>
    </edge>
    <edge id=":gneJ109_1" function="internal">
        <lane id=":gneJ109_1_0" index="0" speed="13.89" length="14.40" shape="607.20,698.40 592.80,698.40"/>
    </edge>
    <edge id=":gneJ109_2" function="internal">
        <lane id=":gneJ109_2_0" index="0" speed="8.00" length="14.19" shape="607.20,698.40 603.35,698.95 600.60,700.60 598.95,703.35 598.40,707.20"/>
    </edge>
    <edge id=":gneJ109_3" function="internal">
        <lane id=":gneJ109_3_0" index="0" speed="6.51" length="9.03" shape="601.60,707.20 601.95,704.75 603.00,703.00 604.75,701.95 607.20,701.60"/>
    </edge>
    <edge id=":gneJ109_4" function="internal">
        <lane id=":gneJ109_4_0" index="0" speed="8.00" length="14.19" shape="601.60,707.20 601.05,703.35 599.40,700.60 596.65,698.95 592.80,698.40"/>
    </edge>
    <edge id=":gneJ109_5" function="internal">
        <lane id=":gneJ109_5_0" index="0" speed="6.51" length="9.03" shape="592.80,701.60 595.25,701.95 597.00,703.00 598.05,704.75 598.40,707.20"/>
    </edge>
    <edge id=":gneJ109_6" function="internal">
        <lane id=":gneJ109_6_0" index="0" speed="13.89" length="14.40" shape="592.80,701.60 607.20,701.60"/>
    </edge>
    <edge id=":gneJ110_0" function="internal">
        <lane id=":gneJ110_0_0" index="0" speed="6.51" length="9.03" shape="698.40,692.80 698.05,695.25 697.00,697.00 695.25,698.05 692.80,698.40"/>
    </edge>
    <edge id=":gneJ110_1" function="internal">
        <lane id=":gneJ110_1_0" index="0" speed="13.89" length="14.40" shape="698.40,692.80 698.40,707.20"/>
    </edge>
    <edge id=":gneJ110_2" function="internal">
        <lane id=":gneJ110_2_0" index="0" speed="8.00" length="5.93" shape="698.40,692.80 698.95,696.65 700.00,698.40"/>
    </edge>
    <edge id=":gneJ110_12" function="internal">
        <lane id=":gneJ110_12_0" index="0" speed="8.00" length="8.26" shape="700.00,698.40 700.60,699.40 703.35,701.05 707.20,701.60"/>
    </edge>
    <edge id=":gneJ110_3" function="internal">
        <lane id=":gneJ110_3_0" index="0" speed="6.51" length="9.03" shape="707.20,698.40 704.75,698.05 703.00,697.00 701.95,695.25 701.60,692.80"/>
    </edge>
    <edge id=":gneJ110_4" function="internal">
        <lane id=":gneJ110_4_0" index="0" speed="13.89" length="14.40" shape="707.20,698.40 692.80,698.40"/>
    </edge>
    <edge id=":gneJ110_5" function="internal">
        <lane id=":gneJ110_5_0" index="0" speed="8.00" length="14.19" shape="707.20,698.40 703.35,698.95 700.60,700.60 698.95,703.35 698.40,707.20"/>
    </edge>
    <edge id=":gneJ110_6" function="internal">
        <lane id=":gneJ110_6_0" index="0" speed="6.51" length="9.03" shape="701.60,707.20 701.95,704.75 703.00,703.00 704.75,701.95 707.20,701.60"/>
    </edge>
    <edge id=":gneJ110_7" function="internal">
        <lane id=":gneJ110_7_0" index="0" speed="13.89" length="14.40" shape="701.60,707.20 701.60,692.80"/>
    </edge>
    <edge id=":gneJ110_8" function="internal">
        <lane id=":gneJ110_8_0" index="0" speed="8.00" length="5.93" shape="701.60,707.20 701.05,703.35 700.00,701.60"/>
    </edge>
    <edge id=":gneJ110_13" function="internal">
        <lane id=":gneJ110_13_0" index="0" speed="8.00" length="8.26" shape="700.00,701.60 699.40,700.60 696.65,698.95 692.80,698.40"/>
    </edge>
    <edge id=":gneJ110_9" function="internal">
        <lane id=":gneJ110_9_0" index="0" speed="6.51" length="9.03" shape="692.80,701.60 695.25,701.95 697.00,703.00 698.05,704.75 698.40,707.20"/>
    </edge>
    <edge id=":gneJ110_10" function="internal">
        <lane id=":gneJ110_10_0" index="0" speed="13.89" length="14.40" shape="692.80,701.60 707.20,701.60"/>
    </edge>
    <edge id=":gneJ110_11" function="internal">
        <lane id=":gneJ110_11_0" index="0" speed="8.00" length="14.19" shape="692.80,701.60 696.65,701.05 699.40,699.40 701.05,696.65 701.60,692.80"/>
    </edge>
    <edge id=":gneJ75_0" function="internal">
        <lane id=":gneJ75_0_0" index="0" speed="6.51" length="9.03" shape="198.40,592.80 198.05,595.25 197.00,597.00 195.25,598.05 192.80,598.40"/>
    </edge>
    <edge id=":gneJ75_1" function="internal">
        <lane id=":gneJ75_1_0" index="0" speed="13.89" length="14.40" shape="198.40,592.80 198.40,607.20"/>
    </edge>
    <edge id=":gneJ75_2" function="internal">
        <lane id=":gneJ75_2_0" index="0" speed="3.65" length="4.67" shape="207.20,598.40 206.00,599.20 205.60,600.00 206.00,600.80 207.20,601.60"/>
    </edge>
    <edge id=":gneJ75_3" function="internal">
        <lane id=":gneJ75_3_0" index="0" speed="13.89" length="14.40" shape="201.60,607.20 201.60,592.80"/>
    </edge>
    <edge id=":gneJ75_4" function="internal">
        <lane id=":gneJ75_4_0" index="0" speed="8.00" length="5.93" shape="201.60,607.20 201.05,603.35 200.00,601.60"/>
    </edge>
    <edge id=":gneJ75_7" function="internal">
        <lane id=":gneJ75_7_0" index="0" speed="8.00" length="8.26" shape="200.00,601.60 199.40,600.60 196.65,598.95 192.80,598.40"/>
    </edge>
    <edge id=":gneJ75_5" function="internal">
        <lane id=":gneJ75_5_0" index="0" speed="6.51" length="9.03" shape="192.80,601.60 195.25,601.95 197.00,603.00 198.05,604.75 198.40,607.20"/>
    </edge>
    <edge id=":gneJ75_6" function="internal">
        <lane id=":gneJ75_6_0" index="0" speed="8.00" length="14.19" shape="192.80,601.60 196.65,601.05 199.40,599.40 201.05,596.65 201.60,592.80"/>
    </edge>
    <edge id=":gneJ76_0" function="internal">
        <lane id=":gneJ76_0_0" index="0" speed="6.51" length="9.03" shape="298.40,592.80 298.05,595.25 297.00,597.00 295.25,598.05 292.80,598.40"/>
    </edge>
    <edge id=":gneJ76_1" function="internal">
        <lane id=":gneJ76_1_0" index="0" speed="13.89" length="14.40" shape="298.40,592.80 298.40,607.20"/>
    </edge>
    <edge id=":gneJ76_2" function="internal">
        <lane id=":gneJ76_2_0" index="0" speed="8.00" length="5.93" shape="298.40,592.80 298.95,596.65 300.00,598.40"/>
    </edge>
    <edge id=":gneJ76_12" function="internal">
        <lane id=":gneJ76_12_0" index="0" speed="8.00" length="8.26" shape="300.00,598.40 300.60,599.40 303.35,601.05 307.20,601.60"/>
    </edge>
    <edge id=":gneJ76_3" function="internal">
        <lane id=":gneJ76_3_0" index="0" speed="6.51" length="9.03" shape="307.20,598.40 304.75,598.05 303.00,597.00 301.95,595.25 301.60,592.80"/>
    </edge>
    <edge id=":gneJ76_4" function="internal">
        <lane id=":gneJ76_4_0" index="0" speed="13.89" length="14.40" shape="307.20,598.40 292.80,598.40"/>
    </edge>
    <edge id=":gneJ76_5" function="internal">
        <lane id=":gneJ76_5_0" index="0" speed="8.00" length="14.19" shape="307.20,598.40 303.35,598.95 300.60,600.60 298.95,603.35 298.40,607.20"/>
    </edge>
    <edge id=":gneJ76_6" function="internal">
        <lane id=":gneJ76_6_0" index="0" speed="6.51" length="9.03" shape="301.60,607.20 301.95,604.75 303.00,603.00 304.75,601.95 307.20,601.60"/>
    </edge>
    <edge id=":gneJ76_7" function="internal">
        <lane id=":gneJ76_7_0" index="0" speed="13.89" length="14.40" shape="301.60,607.20 301.60,592.80"/>
    </edge>
    <edge id=":gneJ76_8" function="internal">
        <lane id=":gneJ76_8_0" index="0" speed="8.00" length="5.93" shape="301.60,607.20 301.05,603.35 300.00,601.60"/>
    </edge>
    <edge id=":gneJ76_13" function="internal">
        <lane id=":gneJ76_13_0" index="0" speed="8.00" length="8.26" shape="300.00,601.60 299.40,600.60 296.65,598.95 292.80,598.40"/>
    </edge>
    <edge id=":gneJ76_9" function="internal">
        <lane id=":gneJ76_9_0" index="0" speed="6.51" length="9.03" shape="292.80,601.60 295.25,601.95 297.00,603.00 298.05,604.75 298.40,607.20"/>
    </edge>
    <edge id=":gneJ76_10" function="internal">
        <lane id=":gneJ76_10_0" index="0" speed="13.89" length="14.40" shape="292.80,601.60 307.20,601.60"/>
    </edge>
    <edge id=":gneJ76_11" function="internal">
        <lane id=":gneJ76_11_0" index="0" speed="8.00" length="14.19" shape="292.80,601.60 296.65,601.05 299.40,599.40 301.05,596.65 301.60,592.80"/>
    </edge>
    <edge id=":gneJ77_0" function="internal">
        <lane id=":gneJ77_0_0" index="0" speed="6.51" length="9.03" shape="398.40,592.80 398.05,595.25 397.00,597.00 395.25,598.05 392.80,598.40"/>
    </edge>
    <edge id=":gneJ77_1" function="internal">
        <lane id=":gneJ77_1_0" index="0" speed="13.89" length="14.40" shape="398.40,592.80 398.40,607.20"/>
    </edge>
    <edge id=":gneJ77_2" function="internal">
        <lane id=":gneJ77_2_0" index="0" speed="3.65" length="4.67" shape="407.20,598.40 406.00,599.20 405.60,600.00 406.00,600.80 407.20,601.60"/>
    </edge>
    <edge id=":gneJ77_3" function="internal">
        <lane id=":gneJ77_3_0" index="0" speed="13.89" length="14.40" shape="401.60,607.20 401.60,592.80"/>
    </edge>
    <edge id=":gneJ77_4" function="internal">
        <lane id=":gneJ77_4_0" index="0" speed="8.00" length="5.93" shape="401.60,607.20 401.05,603.35 400.00,601.60"/>
    </edge>
    <edge id=":gneJ77_7" function="internal">
        <lane id=":gneJ77_7_0" index="0" speed="8.00" length="8.26" shape="400.00,601.60 399.40,600.60 396.65,598.95 392.80,598.40"/>
    </edge>
    <edge id=":gneJ77_5" function="internal">
        <lane id=":gneJ77_5_0" index="0" speed="6.51" length="9.03" shape="392.80,601.60 395.25,601.95 397.00,603.00 398.05,604.75 398.40,607.20"/>
    </edge>
    <edge id=":gneJ77_6" function="internal">
        <lane id=":gneJ77_6_0" index="0" speed="8.00" length="14.19" shape="392.80,601.60 396.65,601.05 399.40,599.40 401.05,596.65 401.60,592.80"/>
    </edge>
    <edge id=":gneJ78_0" function="internal">
        <lane id=":gneJ78_0_0" index="0" speed="6.51" length="9.03" shape="498.40,592.80 498.05,595.25 497.00,597.00 495.25,598.05 492.80,598.40"/>
    </edge>
    <edge id=":gneJ78_1" function="internal">
        <lane id=":gneJ78_1_0" index="0" speed="13.89" length="14.40" shape="498.40,592.80 498.40,607.20"/>
    </edge>
    <edge id=":gneJ78_2" function="internal">
        <lane id=":gneJ78_2_0" index="0" speed="8.00" length="5.93" shape="498.40,592.80 498.95,596.65 500.00,598.40"/>
    </edge>
    <edge id=":gneJ78_12" function="internal">