<?xml version="1.0" encoding="UTF-8"?>

<!-- generated on 2022-04-15 11:56:35 by Eclipse SUMO netedit Version 1.10.0
<configuration xmlns:xsi="http://www.w3.org/2001/XMLSchema-instance" xsi:noNamespaceSchemaLocation="http://sumo.dlr.de/xsd/netconvertConfiguration.xsd">

    <input>
        <sumo-net-file value="C:\Users\sam\Documents\Work\Final%20Year\Dissertation\diss\Simulation\simple\ltn\lntGridFringe.net.xml"/>
    </input>

    <output>
        <output-file value="C:\Users\sam\Documents\Work\Final%20Year\Dissertation\diss\Simulation\simple\ltn\lntGridFringe.net.xml"/>
    </output>

    <processing>
        <geometry.min-radius.fix.railways value="false"/>
        <geometry.max-grade.fix value="false"/>
        <offset.disable-normalization value="true"/>
        <lefthand value="false"/>
    </processing>

    <junctions>
        <no-turnarounds value="true"/>
        <junctions.corner-detail value="5"/>
        <junctions.limit-turn-speed value="5.5"/>
        <rectangular-lane-cut value="false"/>
    </junctions>

    <pedestrian>
        <walkingareas value="false"/>
    </pedestrian>

    <report>
        <aggregate-warnings value="5"/>
    </report>

</configuration>
-->

<net version="1.9" junctionCornerDetail="5" limitTurnSpeed="5.50" xmlns:xsi="http://www.w3.org/2001/XMLSchema-instance" xsi:noNamespaceSchemaLocation="http://sumo.dlr.de/xsd/net_file.xsd">

    <location netOffset="0.00,0.00" convBoundary="-500.00,-600.00,200.00,100.00" origBoundary="-10000000000.00,-10000000000.00,10000000000.00,10000000000.00" projParameter="!"/>

    <edge id=":gneJ100_0" function="internal">
        <lane id=":gneJ100_0_0" index="0" speed="6.51" length="9.03" shape="-401.60,-492.80 -401.95,-495.25 -403.00,-497.00 -404.75,-498.05 -407.20,-498.40"/>
    </edge>
    <edge id=":gneJ100_1" function="internal">
        <lane id=":gneJ100_1_0" index="0" speed="13.89" length="14.40" shape="-401.60,-492.80 -401.60,-507.20"/>
    </edge>
    <edge id=":gneJ100_2" function="internal">
        <lane id=":gneJ100_2_0" index="0" speed="8.00" length="5.93" shape="-401.60,-492.80 -401.05,-496.65 -400.00,-498.40"/>
    </edge>
    <edge id=":gneJ100_12" function="internal">
        <lane id=":gneJ100_12_0" index="0" speed="8.00" length="8.26" shape="-400.00,-498.40 -399.40,-499.40 -396.65,-501.05 -392.80,-501.60"/>
    </edge>
    <edge id=":gneJ100_3" function="internal">
        <lane id=":gneJ100_3_0" index="0" speed="6.51" length="9.03" shape="-392.80,-498.40 -395.25,-498.05 -397.00,-497.00 -398.05,-495.25 -398.40,-492.80"/>
    </edge>
    <edge id=":gneJ100_4" function="internal">
        <lane id=":gneJ100_4_0" index="0" speed="13.89" length="14.40" shape="-392.80,-498.40 -407.20,-498.40"/>
    </edge>
    <edge id=":gneJ100_5" function="internal">
        <lane id=":gneJ100_5_0" index="0" speed="8.00" length="14.19" shape="-392.80,-498.40 -396.65,-498.95 -399.40,-500.60 -401.05,-503.35 -401.60,-507.20"/>
    </edge>
    <edge id=":gneJ100_6" function="internal">
        <lane id=":gneJ100_6_0" index="0" speed="6.51" length="9.03" shape="-398.40,-507.20 -398.05,-504.75 -397.00,-503.00 -395.25,-501.95 -392.80,-501.60"/>
    </edge>
    <edge id=":gneJ100_7" function="internal">
        <lane id=":gneJ100_7_0" index="0" speed="13.89" length="14.40" shape="-398.40,-507.20 -398.40,-492.80"/>
    </edge>
    <edge id=":gneJ100_8" function="internal">
        <lane id=":gneJ100_8_0" index="0" speed="8.00" length="5.93" shape="-398.40,-507.20 -398.95,-503.35 -400.00,-501.60"/>
    </edge>
    <edge id=":gneJ100_13" function="internal">
        <lane id=":gneJ100_13_0" index="0" speed="8.00" length="8.26" shape="-400.00,-501.60 -400.60,-500.60 -403.35,-498.95 -407.20,-498.40"/>
    </edge>
    <edge id=":gneJ100_9" function="internal">
        <lane id=":gneJ100_9_0" index="0" speed="6.51" length="9.03" shape="-407.20,-501.60 -404.75,-501.95 -403.00,-503.00 -401.95,-504.75 -401.60,-507.20"/>
    </edge>
    <edge id=":gneJ100_10" function="internal">
        <lane id=":gneJ100_10_0" index="0" speed="13.89" length="14.40" shape="-407.20,-501.60 -392.80,-501.60"/>
    </edge>
    <edge id=":gneJ100_11" function="internal">
        <lane id=":gneJ100_11_0" index="0" speed="8.00" length="14.19" shape="-407.20,-501.60 -403.35,-501.05 -400.60,-499.40 -398.95,-496.65 -398.40,-492.80"/>
    </edge>
    <edge id=":gneJ101_0" function="internal">
        <lane id=":gneJ101_0_0" index="0" speed="6.51" length="9.03" shape="-301.60,-492.80 -301.95,-495.25 -303.00,-497.00 -304.75,-498.05 -307.20,-498.40"/>
    </edge>
    <edge id=":gneJ101_1" function="internal">
        <lane id=":gneJ101_1_0" index="0" speed="8.00" length="14.19" shape="-301.60,-492.80 -301.05,-496.65 -299.40,-499.40 -296.65,-501.05 -292.80,-501.60"/>
    </edge>
    <edge id=":gneJ101_2" function="internal">
        <lane id=":gneJ101_2_0" index="0" speed="6.51" length="9.03" shape="-292.80,-498.40 -295.25,-498.05 -297.00,-497.00 -298.05,-495.25 -298.40,-492.80"/>
    </edge>
    <edge id=":gneJ101_3" function="internal">
        <lane id=":gneJ101_3_0" index="0" speed="13.89" length="14.40" shape="-292.80,-498.40 -307.20,-498.40"/>
    </edge>
    <edge id=":gneJ101_4" function="internal">
        <lane id=":gneJ101_4_0" index="0" speed="13.89" length="14.40" shape="-307.20,-501.60 -292.80,-501.60"/>
    </edge>
    <edge id=":gneJ101_5" function="internal">
        <lane id=":gneJ101_5_0" index="0" speed="8.00" length="5.93" shape="-307.20,-501.60 -303.35,-501.05 -301.60,-500.00"/>
    </edge>
    <edge id=":gneJ101_6" function="internal">
        <lane id=":gneJ101_6_0" index="0" speed="8.00" length="8.26" shape="-301.60,-500.00 -300.60,-499.40 -298.95,-496.65 -298.40,-492.80"/>
    </edge>
    <edge id=":gneJ102_0" function="internal">
        <lane id=":gneJ102_0_0" index="0" speed="3.65" length="4.67" shape="-201.60,-492.80 -200.80,-494.00 -200.00,-494.40 -199.20,-494.00 -198.40,-492.80"/>
    </edge>
    <edge id=":gneJ102_1" function="internal">
        <lane id=":gneJ102_1_0" index="0" speed="13.89" length="14.40" shape="-192.80,-498.40 -207.20,-498.40"/>
    </edge>
    <edge id=":gneJ102_2" function="internal">
        <lane id=":gneJ102_2_0" index="0" speed="13.89" length="14.40" shape="-207.20,-501.60 -192.80,-501.60"/>
    </edge>
    <edge id=":gneJ103_0" function="internal">
        <lane id=":gneJ103_0_0" index="0" speed="3.65" length="4.67" shape="-101.60,-492.80 -100.80,-494.00 -100.00,-494.40 -99.20,-494.00 -98.40,-492.80"/>
    </edge>
    <edge id=":gneJ103_1" function="internal">
        <lane id=":gneJ103_1_0" index="0" speed="13.89" length="14.40" shape="-92.80,-498.40 -107.20,-498.40"/>
    </edge>
    <edge id=":gneJ103_2" function="internal">
        <lane id=":gneJ103_2_0" index="0" speed="13.89" length="14.40" shape="-107.20,-501.60 -92.80,-501.60"/>
    </edge>
    <edge id=":gneJ104_0" function="internal">
        <lane id=":gneJ104_0_0" index="0" speed="3.65" length="4.67" shape="-1.60,-492.80 -0.80,-494.00 0.00,-494.40 0.80,-494.00 1.60,-492.80"/>
    </edge>
    <edge id=":gneJ104_1" function="internal">
        <lane id=":gneJ104_1_0" index="0" speed="13.89" length="14.40" shape="7.20,-498.40 -7.20,-498.40"/>
    </edge>
    <edge id=":gneJ104_2" function="internal">
        <lane id=":gneJ104_2_0" index="0" speed="13.89" length="14.40" shape="-7.20,-501.60 7.20,-501.60"/>
    </edge>
    <edge id=":gneJ105_0" function="internal">
        <lane id=":gneJ105_0_0" index="0" speed="6.51" length="9.03" shape="-401.60,7.20 -401.95,4.75 -403.00,3.00 -404.75,1.95 -407.20,1.60"/>
    </edge>
    <edge id=":gneJ105_1" function="internal">
        <lane id=":gneJ105_1_0" index="0" speed="13.89" length="14.40" shape="-401.60,7.20 -401.60,-7.20"/>
    </edge>
    <edge id=":gneJ105_2" function="internal">
        <lane id=":gneJ105_2_0" index="0" speed="8.00" length="5.93" shape="-401.60,7.20 -401.05,3.35 -400.00,1.60"/>
    </edge>
    <edge id=":gneJ105_12" function="internal">
        <lane id=":gneJ105_12_0" index="0" speed="8.00" length="8.26" shape="-400.00,1.60 -399.40,0.60 -396.65,-1.05 -392.80,-1.60"/>
    </edge>
    <edge id=":gneJ105_3" function="internal">
        <lane id=":gneJ105_3_0" index="0" speed="6.51" length="9.03" shape="-392.80,1.60 -395.25,1.95 -397.00,3.00 -398.05,4.75 -398.40,7.20"/>
    </edge>
    <edge id=":gneJ105_4" function="internal">
        <lane id=":gneJ105_4_0" index="0" speed="13.89" length="14.40" shape="-392.80,1.60 -407.20,1.60"/>
    </edge>
    <edge id=":gneJ105_5" function="internal">
        <lane id=":gneJ105_5_0" index="0" speed="8.00" length="14.19" shape="-392.80,1.60 -396.65,1.05 -399.40,-0.60 -401.05,-3.35 -401.60,-7.20"/>
    </edge>
    <edge id=":gneJ105_6" function="internal">
        <lane id=":gneJ105_6_0" index="0" speed="6.51" length="9.03" shape="-398.40,-7.20 -398.05,-4.75 -397.00,-3.00 -395.25,-1.95 -392.80,-1.60"/>
    </edge>
    <edge id=":gneJ105_7" function="internal">
        <lane id=":gneJ105_7_0" index="0" speed="13.89" length="14.40" shape="-398.40,-7.20 -398.40,7.20"/>
    </edge>
    <edge id=":gneJ105_8" function="internal">
        <lane id=":gneJ105_8_0" index="0" speed="8.00" length="5.93" shape="-398.40,-7.20 -398.95,-3.35 -400.00,-1.60"/>
    </edge>
    <edge id=":gneJ105_13" function="internal">
        <lane id=":gneJ105_13_0" index="0" speed="8.00" length="8.26" shape="-400.00,-1.60 -400.60,-0.60 -403.35,1.05 -407.20,1.60"/>
    </edge>
    <edge id=":gneJ105_9" function="internal">
        <lane id=":gneJ105_9_0" index="0" speed="6.51" length="9.03" shape="-407.20,-1.60 -404.75,-1.95 -403.00,-3.00 -401.95,-4.75 -401.60,-7.20"/>
    </edge>
    <edge id=":gneJ105_10" function="internal">
        <lane id=":gneJ105_10_0" index="0" speed="13.89" length="14.40" shape="-407.20,-1.60 -392.80,-1.60"/>
    </edge>
    <edge id=":gneJ105_11" function="internal">
        <lane id=":gneJ105_11_0" index="0" speed="8.00" length="14.19" shape="-407.20,-1.60 -403.35,-1.05 -400.60,0.60 -398.95,3.35 -398.40,7.20"/>
    </edge>
    <edge id=":gneJ106_0" function="internal">
        <lane id=":gneJ106_0_0" index="0" speed="13.89" length="14.40" shape="-292.80,1.60 -307.20,1.60"/>
    </edge>
    <edge id=":gneJ106_1" function="internal">
        <lane id=":gneJ106_1_0" index="0" speed="3.65" length="4.67" shape="-298.40,-7.20 -299.20,-6.00 -300.00,-5.60 -300.80,-6.00 -301.60,-7.20"/>
    </edge>
    <edge id=":gneJ106_2" function="internal">
        <lane id=":gneJ106_2_0" index="0" speed="13.89" length="14.40" shape="-307.20,-1.60 -292.80,-1.60"/>
    </edge>
    <edge id=":gneJ107_0" function="internal">
        <lane id=":gneJ107_0_0" index="0" speed="13.89" length="14.40" shape="-192.80,1.60 -207.20,1.60"/>
    </edge>
    <edge id=":gneJ107_1" function="internal">
        <lane id=":gneJ107_1_0" index="0" speed="3.65" length="4.67" shape="-198.40,-7.20 -199.20,-6.00 -200.00,-5.60 -200.80,-6.00 -201.60,-7.20"/>
    </edge>
    <edge id=":gneJ107_2" function="internal">
        <lane id=":gneJ107_2_0" index="0" speed="13.89" length="14.40" shape="-207.20,-1.60 -192.80,-1.60"/>
    </edge>
    <edge id=":gneJ108_0" function="internal">
        <lane id=":gneJ108_0_0" index="0" speed="13.89" length="14.40" shape="-92.80,1.60 -107.20,1.60"/>
    </edge>
    <edge id=":gneJ108_1" function="internal">
        <lane id=":gneJ108_1_0" index="0" speed="3.65" length="4.67" shape="-98.40,-7.20 -99.20,-6.00 -100.00,-5.60 -100.80,-6.00 -101.60,-7.20"/>
    </edge>
    <edge id=":gneJ108_2" function="internal">
        <lane id=":gneJ108_2_0" index="0" speed="13.89" length="14.40" shape="-107.20,-1.60 -92.80,-1.60"/>
    </edge>
    <edge id=":gneJ109_0" function="internal">
        <lane id=":gneJ109_0_0" index="0" speed="13.89" length="14.40" shape="7.20,1.60 -7.20,1.60"/>
    </edge>
    <edge id=":gneJ109_1" function="internal">
        <lane id=":gneJ109_1_0" index="0" speed="8.00" length="5.93" shape="7.20,1.60 3.35,1.05 1.60,-0.00"/>
    </edge>
    <edge id=":gneJ109_6" function="internal">
        <lane id=":gneJ109_6_0" index="0" speed="8.00" length="8.26" shape="1.60,-0.00 0.60,-0.60 -1.05,-3.35 -1.60,-7.20"/>
    </edge>
    <edge id=":gneJ109_2" function="internal">
        <lane id=":gneJ109_2_0" index="0" speed="6.51" length="9.03" shape="1.60,-7.20 1.95,-4.75 3.00,-3.00 4.75,-1.95 7.20,-1.60"/>
    </edge>
    <edge id=":gneJ109_3" function="internal">
        <lane id=":gneJ109_3_0" index="0" speed="8.00" length="14.19" shape="1.60,-7.20 1.05,-3.35 -0.60,-0.60 -3.35,1.05 -7.20,1.60"/>
    </edge>
    <edge id=":gneJ109_4" function="internal">
        <lane id=":gneJ109_4_0" index="0" speed="6.51" length="9.03" shape="-7.20,-1.60 -4.75,-1.95 -3.00,-3.00 -1.95,-4.75 -1.60,-7.20"/>
    </edge>
    <edge id=":gneJ109_5" function="internal">
        <lane id=":gneJ109_5_0" index="0" speed="13.89" length="14.40" shape="-7.20,-1.60 7.20,-1.60"/>
    </edge>
    <edge id=":gneJ110_0" function="internal">
        <lane id=":gneJ110_0_0" index="0" speed="6.51" length="9.03" shape="98.40,7.20 98.05,4.75 97.00,3.00 95.25,1.95 92.80,1.60"/>
    </edge>
    <edge id=":gneJ110_1" function="internal">
        <lane id=":gneJ110_1_0" index="0" speed="13.89" length="14.40" shape="98.40,7.20 98.40,-7.20"/>
    </edge>
    <edge id=":gneJ110_2" function="internal">
        <lane id=":gneJ110_2_0" index="0" speed="8.00" length="5.93" shape="98.40,7.20 98.95,3.35 100.00,1.60"/>
    </edge>
    <edge id=":gneJ110_12" function="internal">
        <lane id=":gneJ110_12_0" index="0" speed="8.00" length="8.26" shape="100.00,1.60 100.60,0.60 103.35,-1.05 107.20,-1.60"/>
    </edge>
    <edge id=":gneJ110_3" function="internal">
        <lane id=":gneJ110_3_0" index="0" speed="6.51" length="9.03" shape="107.20,1.60 104.75,1.95 103.00,3.00 101.95,4.75 101.60,7.20"/>
    </edge>
    <edge id=":gneJ110_4" function="internal">
        <lane id=":gneJ110_4_0" index="0" speed="13.89" length="14.40" shape="107.20,1.60 92.80,1.60"/>
    </edge>
    <edge id=":gneJ110_5" function="internal">
        <lane id=":gneJ110_5_0" index="0" speed="8.00" length="14.19" shape="107.20,1.60 103.35,1.05 100.60,-0.60 98.95,-3.35 98.40,-7.20"/>
    </edge>
    <edge id=":gneJ110_6" function="internal">
        <lane id=":gneJ110_6_0" index="0" speed="6.51" length="9.03" shape="101.60,-7.20 101.95,-4.75 103.00,-3.00 104.75,-1.95 107.20,-1.60"/>
    </edge>
    <edge id=":gneJ110_7" function="internal">
        <lane id=":gneJ110_7_0" index="0" speed="13.89" length="14.40" shape="101.60,-7.20 101.60,7.20"/>
    </edge>
    <edge id=":gneJ110_8" function="internal">
        <lane id=":gneJ110_8_0" index="0" speed="8.00" length="5.93" shape="101.60,-7.20 101.05,-3.35 100.00,-1.60"/>
    </edge>
    <edge id=":gneJ110_13" function="internal">
        <lane id=":gneJ110_13_0" index="0" speed="8.00" length="8.26" shape="100.00,-1.60 99.40,-0.60 96.65,1.05 92.80,1.60"/>
    </edge>
    <edge id=":gneJ110_9" function="internal">
        <lane id=":gneJ110_9_0" index="0" speed="6.51" length="9.03" shape="92.80,-1.60 95.25,-1.95 97.00,-3.00 98.05,-4.75 98.40,-7.20"/>
    </edge>
    <edge id=":gneJ110_10" function="internal">
        <lane id=":gneJ110_10_0" index="0" speed="13.89" length="14.40" shape="92.80,-1.60 107.20,-1.60"/>
    </edge>
    <edge id=":gneJ110_11" function="internal">
        <lane id=":gneJ110_11_0" index="0" speed="8.00" length="14.19" shape="92.80,-1.60 96.65,-1.05 99.40,0.60 101.05,3.35 101.60,7.20"/>
    </edge>
    <edge id=":gneJ75_0" function="internal">
        <lane id=":gneJ75_0_0" index="0" speed="13.89" length="14.40" shape="-401.60,-92.80 -401.60,-107.20"/>
    </edge>
    <edge id=":gneJ75_1" function="internal">
        <lane id=":gneJ75_1_0" index="0" speed="8.00" length="5.93" shape="-401.60,-92.80 -401.05,-96.65 -400.00,-98.40"/>
    </edge>
    <edge id=":gneJ75_6" function="internal">
        <lane id=":gneJ75_6_0" index="0" speed="8.00" length="8.26" shape="-400.00,-98.40 -399.40,-99.40 -396.65,-101.05 -392.80,-101.60"/>
    </edge>
    <edge id=":gneJ75_2" function="internal">
        <lane id=":gneJ75_2_0" index="0" speed="6.51" length="9.03" shape="-392.80,-98.40 -395.25,-98.05 -397.00,-97.00 -398.05,-95.25 -398.40,-92.80"/>
    </edge>
    <edge id=":gneJ75_3" function="internal">
        <lane id=":gneJ75_3_0" index="0" speed="8.00" length="14.19" shape="-392.80,-98.40 -396.65,-98.95 -399.40,-100.60 -401.05,-103.35 -401.60,-107.20"/>
    </edge>
    <edge id=":gneJ75_4" function="internal">
        <lane id=":gneJ75_4_0" index="0" speed="6.51" length="9.03" shape="-398.40,-107.20 -398.05,-104.75 -397.00,-103.00 -395.25,-101.95 -392.80,-101.60"/>
    </edge>
    <edge id=":gneJ75_5" function="internal">
        <lane id=":gneJ75_5_0" index="0" speed="13.89" length="14.40" shape="-398.40,-107.20 -398.40,-92.80"/>
    </edge>
    <edge id=":gneJ76_0" function="internal">
        <lane id=":gneJ76_0_0" index="0" speed="6.51" length="9.03" shape="-301.60,-92.80 -301.95,-95.25 -303.00,-97.00 -304.75,-98.05 -307.20,-98.40"/>
    </edge>
    <edge id=":gneJ76_1" function="internal">
        <lane id=":gneJ76_1_0" index="0" speed="13.89" length="14.40" shape="-301.60,-92.80 -301.60,-107.20"/>
    </edge>
    <edge id=":gneJ76_2" function="internal">
        <lane id=":gneJ76_2_0" index="0" speed="8.00" length="5.93" shape="-301.60,-92.80 -301.05,-96.65 -300.00,-98.40"/>
    </edge>
    <edge id=":gneJ76_12" function="internal">
        <lane id=":gneJ76_12_0" index="0" speed="8.00" length="8.26" shape="-300.00,-98.40 -299.40,-99.40 -296.65,-101.05 -292.80,-101.60"/>
    </edge>
    <edge id=":gneJ76_3" function="internal">
        <lane id=":gneJ76_3_0" index="0" speed="6.51" length="9.03" shape="-292.80,-98.40 -295.25,-98.05 -297.00,-97.00 -298.05,-95.25 -298.40,-92.80"/>
    </edge>
    <edge id=":gneJ76_4" function="internal">
        <lane id=":gneJ76_4_0" index="0" speed="13.89" length="14.40" shape="-292.80,-98.40 -307.20,-98.40"/>
    </edge>
    <edge id=":gneJ76_5" function="internal">
        <lane id=":gneJ76_5_0" index="0" speed="8.00" length="14.19" shape="-292.80,-98.40 -296.65,-98.95 -299.40,-100.60 -301.05,-103.35 -301.60,-107.20"/>
    </edge>
    <edge id=":gneJ76_6" function="internal">
        <lane id=":gneJ76_6_0" index="0" speed="6.51" length="9.03" shape="-298.40,-107.20 -298.05,-104.75 -297.00,-103.00 -295.25,-101.95 -292.80,-101.60"/>
    </edge>
    <edge id=":gneJ76_7" function="internal">
        <lane id=":gneJ76_7_0" index="0" speed="13.89" length="14.40" shape="-298.40,-107.20 -298.40,-92.80"/>
    </edge>
    <edge id=":gneJ76_8" function="internal">
        <lane id=":gneJ76_8_0" index="0" speed="8.00" length="5.93" shape="-298.40,-107.20 -298.95,-103.35 -300.00,-101.60"/>
    </edge>
    <edge id=":gneJ76_13" function="internal">
        <lane id=":gneJ76_13_0" index="0" speed="8.00" length="8.26" shape="-300.00,-101.60 -300.60,-100.60 -303.35,-98.95 -307.20,-98.40"/>
    </edge>
    <edge id=":gneJ76_9" function="internal">
        <lane id=":gneJ76_9_0" index="0" speed="6.51" length="9.03" shape="-307.20,-101.60 -304.75,-101.95 -303.00,-103.00 -301.95,-104.75 -301.60,-107.20"/>
    </edge>
    <edge id=":gneJ76_10" function="internal">
        <lane id=":gneJ76_10_0" index="0" speed="13.89" length="14.40" shape="-307.20,-101.60 -292.80,-101.60"/>
    </edge>
    <edge id=":gneJ76_11" function="internal">
        <lane id=":gneJ76_11_0" index="0" speed="8.00" length="14.19" shape="-307.20,-101.60 -303.35,-101.05 -300.60,-99.40 -298.95,-96.65 -298.40,-92.80"/>
    </edge>
    <edge id=":gneJ77_0" function="internal">
        <lane id=":gneJ77_0_0" index="0" speed="6.51" length="9.03" shape="-201.60,-92.80 -201.95,-95.25 -203.00,-97.00 -204.75,-98.05 -207.20,-98.40"/>
    </edge>
    <edge id=":gneJ77_1" function="internal">
        <lane id=":gneJ77_1_0" index="0" speed="13.89" length="14.40" shape="-201.60,-92.80 -201.60,-107.20"/>
    </edge>
    <edge id=":gneJ77_2" function="internal">
        <lane id=":gneJ77_2_0" index="0" speed="13.89" length="14.40" shape="-198.40,-107.20 -198.40,-92.80"/>
    </edge>
    <edge id=":gneJ77_3" function="internal">
        <lane id=":gneJ77_3_0" index="0" speed="8.00" length="5.93" shape="-198.40,-107.20 -198.95,-103.35 -200.00,-101.60"/>
    </edge>
    <edge id=":gneJ77_6" function="internal">
        <lane id=":gneJ77_6_0" index="0" speed="8.00" length="8.26" shape="-200.00,-101.60 -200.60,-100.60 -203.35,-98.95 -207.20,-98.40"/>
    </edge>
    <edge id=":gneJ77_4" function="internal">
        <lane id=":gneJ77_4_0" index="0" speed="6.51" length="9.03" shape="-207.20,-101.60 -204.75,-101.95 -203.00,-103.00 -201.95,-104.75 -201.60,-107.20"/>
    </edge>
    <edge id=":gneJ77_5" function="internal">
        <lane id=":gneJ77_5_0" index="0" speed="8.00" length="14.19" shape="-207.20,-101.60 -203.35,-101.05 -200.60,-99.40 -198.95,-96.65 -198.40,-92.80"/>
    </edge>
    <edge id=":gneJ78_0" function="internal">
        <lane id=":gneJ78_0_0" index="0" speed="13.89" length="14.40" shape="-101.60,-92.80 -101.60,-107.20"/>
    </edge>
    <edge id=":gneJ78_1" function="internal">
        <lane id=":gneJ78_1_0" index="0" speed="8.00" length="5.93" shape="-101.60,-92.80 -101.05,-96.65 -100.00,-98.40"/>
    </edge>
    <edge id=":gneJ78_6" function="internal">
        <lane id=":gneJ78_6_0" index="0" speed="8.00" length="8.26" shape="-100.00,-98.40 -99.40,-99.40 -96.65,-101.05 -92.80,-101.60"/>
    </edge>
    <edge id=":gneJ78_2" function="internal">
        <lane id=":gneJ78_2_0" index="0" speed="6.51" length="9.03" shape="-92.80,-98.40 -95.25,-98.05 -97.00,-97.00 -98.05,-95.25 -98.40,-92.80"/>
    </edge>
    <edge id=":gneJ78_3" function="internal">
        <lane id=":gneJ78_3_0" index="0" speed="8.00" length="14.19" shape="-92.80,-98.40 -96.65,-98.95 -99.40,-100.60 -101.05,-103.35 -101.60,-107.20"/>
    </edge>
    <edge id=":gneJ78_4" function="internal">
        <lane id=":gneJ78_4_0" index="0" speed="6.51" length="9.03" shape="-98.40,-107.20 -98.05,-104.75 -97.00,-103.00 -95.25,-101.95 -92.80,-101.60"/>
    </edge>
    <edge id=":gneJ78_5" function="internal">
        <lane id=":gneJ78_5_0" index="0" speed="13.89" length="14.40" shape="-98.40,-107.20 -98.40,-92.80"/>
    </edge>
    <edge id=":gneJ79_0" function="internal">
        <lane id=":gneJ79_0_0" index="0" speed="6.51" length="9.03" shape="-1.60,-92.80 -1.95,-95.25 -3.00,-97.00 -4.75,-98.05 -7.20,-98.40"/>
    </edge>
    <edge id=":gneJ79_1" function="internal">
        <lane id=":gneJ79_1_0" index="0" speed="13.89" length="14.40" shape="-1.60,-92.80 -1.60,-107.20"/>
    </edge>
    <edge id=":gneJ79_2" function="internal">
        <lane id=":gneJ79_2_0" index="0" speed="8.00" length="5.93" shape="-1.60,-92.80 -1.05,-96.65 0.00,-98.40"/>
    </edge>
    <edge id=":gneJ79_12" function="internal">
        <lane id=":gneJ79_12_0" index="0" speed="8.00" length="8.26" shape="0.00,-98.40 0.60,-99.40 3.35,-101.05 7.20,-101.60"/>
    </edge>
    <edge id=":gneJ79_3" function="internal">
        <lane id=":gneJ79_3_0" index="0" speed="6.51" length="9.03" shape="7.20,-98.40 4.75,-98.05 3.00,-97.00 1.95,-95.25 1.60,-92.80"/>
    </edge>
    <edge id=":gneJ79_4" function="internal">
        <lane id=":gneJ79_4_0" index="0" speed="13.89" length="14.40" shape="7.20,-98.40 -7.20,-98.40"/>
    </edge>
    <edge id=":gneJ79_5" function="internal">
        <lane id=":gneJ79_5_0" index="0" speed="8.00" length="14.19" shape="7.20,-98.40 3.35,-98.95 0.60,-100.60 -1.05,-103.35 -1.60,-107.20"/>
    </edge>
    <edge id=":gneJ79_6" function="internal">
        <lane id=":gneJ79_6_0" index="0" speed="6.51" length="9.03" shape="1.60,-107.20 1.95,-104.75 3.00,-103.00 4.75,-101.95 7.20,-101.60"/>
    </edge>
    <edge id=":gneJ79_7" function="internal">
        <lane id=":gneJ79_7_0" index="0" speed="13.89" length="14.40" shape="1.60,-107.20 1.60,-92.80"/>
    </edge>
    <edge id=":gneJ79_8" function="internal">
        <lane id=":gneJ79_8_0" index="0" speed="8.00" length="5.93" shape="1.60,-107.20 1.05,-103.35 -0.00,-101.60"/>
    </edge>
    <edge id=":gneJ79_13" function="internal">
        <lane id=":gneJ79_13_0" index="0" speed="8.00" length="8.26" shape="-0.00,-101.60 -0.60,-100.60 -3.35,-98.95 -7.20,-98.40"/>
    </edge>
    <edge id=":gneJ79_9" function="internal">
        <lane id=":gneJ79_9_0" index="0" speed="6.51" length="9.03" shape="-7.20,-101.60 -4.75,-101.95 -3.00,-103.00 -1.95,-104.75 -1.60,-107.20"/>
    </edge>
    <edge id=":gneJ79_10" function="internal">
        <lane id=":gneJ79_10_0" index="0" speed="13.89" length="14.40" shape="-7.20,-101.60 7.20,-101.60"/>
    </edge>
    <edge id=":gneJ79_11" function="internal">
        <lane id=":gneJ79_11_0" index="0" speed="8.00" length="14.19" shape="-7.20,-101.60 -3.35,-101.05 -0.60,-99.40 1.05,-96.65 1.60,-92.80"/>
    </edge>
    <edge id=":gneJ80_0" function="internal">
        <lane id=":gneJ80_0_0" index="0" speed="13.89" length="14.40" shape="98.40,-92.80 98.40,-107.20"/>
    </edge>
    <edge id=":gneJ80_1" function="internal">
        <lane id=":gneJ80_1_0" index="0" speed="13.89" length="14.40" shape="101.60,-107.20 101.60,-92.80"/>
    </edge>
    <edge id=":gneJ80_2" function="internal">
        <lane id=":gneJ80_2_0" index="0" speed="3.65" length="4.67" shape="92.80,-101.60 94.00,-100.80 94.40,-100.00 94.00,-99.20 92.80,-98.40"/>
    </edge>
    <edge id=":gneJ81_0" function="internal">
        <lane id=":gneJ81_0_0" index="0" speed="13.89" length="14.40" shape="98.40,-192.80 98.40,-207.20"/>
    </edge>
    <edge id=":gneJ81_1" function="internal">
        <lane id=":gneJ81_1_0" index="0" speed="13.89" length="14.40" shape="101.60,-207.20 101.60,-192.80"/>
    </edge>
    <edge id=":gneJ81_2" function="internal">
        <lane id=":gneJ81_2_0" index="0" speed="3.65" length="4.67" shape="92.80,-201.60 94.00,-200.80 94.40,-200.00 94.00,-199.20 92.80,-198.40"/>
    </edge>
    <edge id=":gneJ82_0" function="internal">
        <lane id=":gneJ82_0_0" index="0" speed="13.89" length="14.40" shape="98.40,-292.80 98.40,-307.20"/>
    </edge>
    <edge id=":gneJ82_1" function="internal">
        <lane id=":gneJ82_1_0" index="0" speed="13.89" length="14.40" shape="101.60,-307.20 101.60,-292.80"/>
    </edge>
    <edge id=":gneJ82_2" function="internal">
        <lane id=":gneJ82_2_0" index="0" speed="3.65" length="4.67" shape="92.80,-301.60 94.00,-300.80 94.40,-300.00 94.00,-299.20 92.80,-298.40"/>
    </edge>
    <edge id=":gneJ83_0" function="internal">
        <lane id=":gneJ83_0_0" index="0" speed="6.51" length="9.03" shape="98.40,-392.80 98.05,-395.25 97.00,-397.00 95.25,-398.05 92.80,-398.40"/>
    </edge>
    <edge id=":gneJ83_1" function="internal">
        <lane id=":gneJ83_1_0" index="0" speed="13.89" length="14.40" shape="98.40,-392.80 98.40,-407.20"/>
    </edge>
    <edge id=":gneJ83_2" function="internal">
        <lane id=":gneJ83_2_0" index="0" speed="13.89" length="14.40" shape="101.60,-407.20 101.60,-392.80"/>
    </edge>
    <edge id=":gneJ83_3" function="internal">
        <lane id=":gneJ83_3_0" index="0" speed="8.00" length="5.93" shape="101.60,-407.20 101.05,-403.35 100.00,-401.60"/>
    </edge>
    <edge id=":gneJ83_6" function="internal">
        <lane id=":gneJ83_6_0" index="0" speed="8.00" length="8.26" shape="100.00,-401.60 99.40,-400.60 96.65,-398.95 92.80,-398.40"/>
    </edge>
    <edge id=":gneJ83_4" function="internal">
        <lane id=":gneJ83_4_0" index="0" speed="6.51" length="9.03" shape="92.80,-401.60 95.25,-401.95 97.00,-403.00 98.05,-404.75 98.40,-407.20"/>
    </edge>
    <edge id=":gneJ83_5" function="internal">
        <lane id=":gneJ83_5_0" index="0" speed="8.00" length="14.19" shape="92.80,-401.60 96.65,-401.05 99.40,-399.40 101.05,-396.65 101.60,-392.80"/>
    </edge>
    <edge id=":gneJ84_0" function="internal">
        <lane id=":gneJ84_0_0" index="0" speed="6.51" length="9.03" shape="98.40,-492.80 98.05,-495.25 97.00,-497.00 95.25,-498.05 92.80,-498.40"/>
    </edge>
    <edge id=":gneJ84_1" function="internal">
        <lane id=":gneJ84_1_0" index="0" speed="13.89" length="14.40" shape="98.40,-492.80 98.40,-507.20"/>
    </edge>
    <edge id=":gneJ84_2" function="internal">
        <lane id=":gneJ84_2_0" index="0" speed="8.00" length="5.93" shape="98.40,-492.80 98.95,-496.65 100.00,-498.40"/>
    </edge>
    <edge id=":gneJ84_12" function="internal">
        <lane id=":gneJ84_12_0" index="0" speed="8.00" length="8.26" shape="100.00,-498.40 100.60,-499.40 103.35,-501.05 107.20,-501.60"/>
    </edge>
    <edge id=":gneJ84_3" function="internal">
        <lane id=":gneJ84_3_0" index="0" speed="6.51" length="9.03" shape="107.20,-498.40 104.75,-498.05 103.00,-497.00 101.95,-495.25 101.60,-492.80"/>
    </edge>
    <edge id=":gneJ84_4" function="internal">
        <lane id=":gneJ84_4_0" index="0" speed="13.89" length="14.40" shape="107.20,-498.40 92.80,-498.40"/>
    </edge>
    <edge id=":gneJ84_5" function="internal">
        <lane id=":gneJ84_5_0" index="0" speed="8.00" length="14.19" shape="107.20,-498.40 103.35,-498.95 100.60,-500.60 98.95,-503.35 98.40,-507.20"/>
    </edge>
    <edge id=":gneJ84_6" function="internal">
        <lane id=":gneJ84_6_0" index="0" speed="6.51" length="9.03" shape="101.60,-507.20 101.95,-504.75 103.00,-503.00 104.75,-501.95 107.20,-501.60"/>
    </edge>
    <edge id=":gneJ84_7" function="internal">
        <lane id=":gneJ84_7_0" index="0" speed="13.89" length="14.40" shape="101.60,-507.20 101.60,-492.80"/>
    </edge>
    <edge id=":gneJ84_8" function="internal">
        <lane id=":gneJ84_8_0" index="0" speed="8.00" length="5.93" shape="101.60,-507.20 101.05,-503.35 100.00,-501.60"/>
    </edge>
    <edge id=":gneJ84_13" function="internal">
        <lane id=":gneJ84_13_0" index="0" speed="8.00" length="8.26" shape="100.00,-501.60 99.40,-500.60 96.65,-498.95 92.80,-498.40"/>
    </edge>
    <edge id=":gneJ84_9" function="internal">