<?xml version="1.0" encoding="UTF-8"?>

<!-- generated on 2022-05-09 19:32:44 by Eclipse SUMO duarouter Version 1.10.0
<configuration xmlns:xsi="http://www.w3.org/2001/XMLSchema-instance" xsi:noNamespaceSchemaLocation="http://sumo.dlr.de/xsd/duarouterConfiguration.xsd">

    <input>
        <net-file value="../ltn/ltnGrid.net.xml"/>
        <route-files value="../ltn/ltnTrips.rou.xml"/>
        <junction-taz value="true"/>
    </input>

    <output>
        <output-file value="../ltn/ltnRoutes.rou.xml"/>
        <alternatives-output value="../ltn/ltnRoutes.rou.alt.xml"/>
    </output>

</configuration>
-->

<routes xmlns:xsi="http://www.w3.org/2001/XMLSchema-instance" xsi:noNamespaceSchemaLocation="http://sumo.dlr.de/xsd/routes_file.xsd">
    <vehicle id="0" depart="0.00">
        <route edges="-gneE119 -gneE130"/>
    </vehicle>
    <vehicle id="1" depart="0.73">
        <route edges="gneE68 -gneE108 -gneE106 -gneE142"/>
    </vehicle>
    <vehicle id="2" depart="1.46">
        <route edges="gneE108 -gneE68 -gneE140"/>
    </vehicle>
    <vehicle id="3" depart="2.19">
        <route edges="-gneE84 gneE97 gneE99 -gneE125"/>
    </vehicle>
    <vehicle id="4" depart="2.92">
        <route edges="-gneE80 -gneE79 -gneE66 -gneE65 -gneE119 -gneE130"/>
    </vehicle>
    <vehicle id="5" depart="3.65">
        <route edges="-gneE90 gneE91"/>
    </vehicle>
    <vehicle id="6" depart="4.39">
        <route edges="gneE104 gneE106 gneE108 -gneE68 -gneE67 -gneE66 -gneE65 -gneE119 -gneE130"/>
    </vehicle>
    <vehicle id="7" depart="5.12">
        <route edges="-gneE106 -gneE104 -gneE102 gneE95"/>
    </vehicle>
    <vehicle id="8" depart="5.85">
        <route edges="gneE108 -gneE68 -gneE67 -gneE66 -gneE65 -gneE119 -gneE118 -gneE116 -gneE135"/>
    </vehicle>
    <vehicle id="9" depart="6.58">
        <route edges="gneE66 gneE67 gneE68 -gneE124"/>
    </vehicle>
    <vehicle id="10" depart="7.31">
        <route edges="gneE102 gneE103 -gneE100 -gneE99 -gneE97 gneE84 gneE74"/>
    </vehicle>
    <vehicle id="11" depart="8.04">
        <route edges="-gneE95 gneE102 gneE104 gneE106 gneE108 -gneE123"/>
    </vehicle>
    <vehicle id="12" depart="8.77">
        <route edges="gneE115 gneE77 gneE71"/>
    </vehicle>
    <vehicle id="13" depart="9.50">
        <route edges="-gneE118 -gneE116 -gneE114 -gneE134"/>
    </vehicle>
    <vehicle id="14" depart="10.23">
        <route edges="-gneE79 gneE67 gneE68 -gneE108 -gneE106 -gneE104 gneE103 -gneE100 -gneE99 -gneE145"/>
    </vehicle>
    <vehicle id="15" depart="10.96">
        <route edges="-gneE103 gneE104 gneE106 gneE108 -gneE68 -gneE67"/>
    </vehicle>
    <vehicle id="16" depart="11.70">
        <route edges="-gneE65 -gneE119 -gneE118 -gneE116 -gneE114 -gneE112 -gneE133"/>
    </vehicle>
    <vehicle id="17" depart="12.43">
        <route edges="-gneE94 gneE102 gneE104 -gneE142"/>
    </vehicle>
    <vehicle id="18" depart="13.16">
        <route edges="-gneE63 -gneE115 gneE116 gneE118 gneE119 gneE65 gneE66 gneE67 gneE68 -gneE108 -gneE106 -gneE142"/>
    </vehicle>
    <vehicle id="19" depart="13.89">
        <route edges="-gneE115 -gneE114 -gneE112 -gneE110 -gneE109 -gneE74 -gneE84 gneE97 gneE99 -gneE126"/>
    </vehicle>
    <vehicle id="20" depart="14.62">
        <route edges="gneE66 gneE79 gneE80"/>
    </vehicle>
    <vehicle id="21" depart="15.35">
        <route edges="gneE119 gneE65 gneE66 gneE67 gneE68 -gneE108 -gneE106 -gneE104 gneE103 -gneE100 -gneE126"/>
    </vehicle>
    <vehicle id="22" depart="16.08">
        <route edges="gneE68 -gneE108 -gneE106 -gneE104 -gneE143"/>
    </vehicle>
    <vehicle id="23" depart="16.81">
        <route edges="gneE73 gneE74 gneE109 gneE110 gneE112 gneE114 gneE116 -gneE136"/>
    </vehicle>
    <vehicle id="24" depart="17.54">
        <route edges="-gneE102 gneE94"/>
    </vehicle>
    <vehicle id="25" depart="18.27">
        <route edges="-gneE68 -gneE67 gneE79"/>
    </vehicle>
    <vehicle id="26" depart="19.01">
        <route edges="gneE67 gneE68 -gneE108 -gneE106 -gneE142"/>
    </vehicle>
    <vehicle id="27" depart="19.74">
        <route edges="gneE104 gneE106 -gneE141"/>
    </vehicle>
    <vehicle id="28" depart="20.47">
        <route edges="gneE97 gneE99 gneE100 -gneE103 gneE104 gneE106 gneE108 -gneE68 -gneE67 gneE79 gneE89"/>
    </vehicle>
    <vehicle id="29" depart="21.20">
        <route edges="gneE81 gneE93 gneE102 gneE103 -gneE144"/>
    </vehicle>
    <vehicle id="30" depart="21.93">
        <route edges="-gneE109 -gneE74 -gneE84 gneE97 gneE99 gneE100 -gneE103 -gneE102 -gneE93 -gneE81"/>
    </vehicle>
    <vehicle id="31" depart="22.66">
        <route edges="-gneE95 gneE102 gneE104 gneE106 gneE108 -gneE68 -gneE67 -gneE66 -gneE65 -gneE119 -gneE118 -gneE116"/>
    </vehicle>
    <vehicle id="32" depart="23.39">
        <route edges="-gneE112 -gneE110 -gneE109 -gneE74 -gneE84 gneE97 gneE99 gneE100 -gneE103 gneE104 -gneE142"/>
    </vehicle>
    <vehicle id="33" depart="24.12">
        <route edges="-gneE116 -gneE114 -gneE112 -gneE110 -gneE109 -gneE74 -gneE84 gneE97 gneE99 gneE100"/>
    </vehicle>
    <vehicle id="34" depart="24.85">
        <route edges="gneE119 -gneE137"/>
    </vehicle>
    <vehicle id="35" depart="25.58">
        <route edges="gneE97 gneE99 gneE100 -gneE103 gneE104 gneE106"/>
    </vehicle>
    <vehicle id="36" depart="26.31">
        <route edges="gneE70 -gneE77 -gneE115 -gneE114 -gneE112 -gneE110 -gneE109 -gneE149"/>
    </vehicle>
    <vehicle id="37" depart="27.05">
        <route edges="gneE79 gneE80 -gneE92 -gneE105"/>
    </vehicle>
    <vehicle id="38" depart="27.78">
        <route edges="-gneE119 -gneE118 -gneE116 -gneE114 -gneE112 -gneE110 -gneE109 -gneE74 -gneE147"/>
    </vehicle>
    <vehicle id="39" depart="28.51">
        <route edges="-gneE114 -gneE112 -gneE110 -gneE109 -gneE149"/>
    </vehicle>
    <vehicle id="40" depart="29.24">
        <route edges="-gneE89 -gneE79 -gneE66 -gneE65 -gneE119 -gneE130"/>
    </vehicle>
    <vehicle id="41" depart="29.97">
        <route edges="-gneE95 gneE102 gneE104 gneE106 gneE108 -gneE68 -gneE67 -gneE66 -gneE65 -gneE119 -gneE118 -gneE116 -gneE135"/>
    </vehicle>
    <vehicle id="42" depart="30.70">
        <route edges="gneE70 -gneE77 -gneE115 -gneE114 -gneE112 -gneE110 -gneE109 -gneE74 -gneE147"/>
    </vehicle>
    <vehicle id="43" depart="31.43">
        <route edges="gneE103 -gneE100 -gneE99 -gneE97 -gneE146"/>
    </vehicle>
    <vehicle id="44" depart="32.16">
        <route edges="-gneE79 -gneE66"/>
    </vehicle>
    <vehicle id="45" depart="32.89">
        <route edges="-gneE77 -gneE115 -gneE114 -gneE112 -gneE110 -gneE131"/>
    </vehicle>
    <vehicle id="46" depart="33.62">
        <route edges="gneE97 gneE99 gneE100 -gneE103"/>
    </vehicle>
    <vehicle id="47" depart="34.36">
        <route edges="gneE84 -gneE73 -gneE72 -gneE76"/>
    </vehicle>
    <vehicle id="48" depart="35.09">
        <route edges="gneE114 gneE116 gneE118 gneE119 gneE65 -gneE138"/>
    </vehicle>
    <vehicle id="49" depart="35.82">
        <route edges="-gneE109 -gneE74 -gneE84 gneE97 gneE99 gneE100 -gneE103 -gneE102 -gneE93 -gneE81"/>
    </vehicle>
    <vehicle id="50" depart="36.55">
        <route edges="-gneE68 -gneE67 -gneE66 -gneE65 -gneE119 -gneE118 -gneE116 -gneE135"/>
    </vehicle>
    <vehicle id="51" depart="37.28">
        <route edges="-gneE102 gneE94"/>
    </vehicle>
    <vehicle id="52" depart="38.01">
        <route edges="-gneE119 -gneE118 -gneE116"/>
    </vehicle>
    <vehicle id="53" depart="38.74">
        <route edges="gneE100 -gneE103 gneE104 gneE106 gneE108 -gneE68 -gneE67 -gneE66"/>
    </vehicle>
    <vehicle id="54" depart="39.47">
        <route edges="gneE104 gneE106 gneE108 -gneE68 -gneE67 -gneE66 -gneE65 -gneE119 -gneE118 -gneE136"/>
    </vehicle>
    <vehicle id="55" depart="40.20">
        <route edges="gneE115"/>
    </vehicle>
    <vehicle id="56" depart="40.93">
        <route edges="-gneE112 -gneE110 -gneE109 -gneE74 -gneE84 gneE97 gneE99 gneE100 -gneE103 gneE104 -gneE142"/>
    </vehicle>
    <vehicle id="57" depart="41.66">
        <route edges="-gneE85 gneE73 gneE74 gneE109 gneE110 gneE112 gneE114 gneE116 gneE118 -gneE129"/>
    </vehicle>
    <vehicle id="58" depart="42.40">
        <route edges="-gneE83"/>
    </vehicle>
    <vehicle id="59" depart="43.13">
        <route edges="gneE72 gneE73 -gneE84 gneE97 gneE99 -gneE126"/>
    </vehicle>
    <vehicle id="60" depart="43.86">
        <route edges="gneE60 gneE61"/>
    </vehicle>
    <vehicle id="61" depart="44.59">
        <route edges="gneE101 -gneE95 gneE94"/>
    </vehicle>
    <vehicle id="62" depart="45.32">
        <route edges="gneE99"/>
    </vehicle>
    <vehicle id="63" depart="46.05">
        <route edges="gneE96"/>
    </vehicle>
    <vehicle id="64" depart="46.78">
        <route edges="gneE65 gneE66 gneE67 gneE68 -gneE108 -gneE106 -gneE104 -gneE143"/>
    </vehicle>
    <vehicle id="65" depart="47.51">
        <route edges="-gneE99 -gneE97 gneE84 -gneE147"/>
    </vehicle>
    <vehicle id="66" depart="48.24">
        <route edges="-gneE65 -gneE119 -gneE118 -gneE116 -gneE114 -gneE112 -gneE110 -gneE109 -gneE74 -gneE147"/>
    </vehicle>
    <vehicle id="67" depart="48.97">
        <route edges="gneE84 gneE74 gneE109 gneE110 gneE112 gneE114 gneE116 gneE118 -gneE129"/>
    </vehicle>
    <vehicle id="68" depart="49.71">
        <route edges="-gneE104 gneE103 -gneE100 -gneE99 -gneE97 gneE84 -gneE73 -gneE75"/>
    </vehicle>
    <vehicle id="69" depart="50.44">
        <route edges="gneE92 -gneE87"/>
    </vehicle>
    <vehicle id="70" depart="51.17">
        <route edges="-gneE116 -gneE114 -gneE112 -gneE110 -gneE109 -gneE74 -gneE84 gneE97 gneE99 gneE100"/>
    </vehicle>
    <vehicle id="71" depart="51.90">
        <route edges="-gneE85 gneE73 gneE74 gneE109 gneE110 gneE112 gneE114"/>
    </vehicle>
    <vehicle id="72" depart="52.63">
        <route edges="-gneE104 -gneE102 -gneE93 gneE82"/>
    </vehicle>
    <vehicle id="73" depart="53.36">
        <route edges="-gneE95 gneE102 gneE103 -gneE100 -gneE99 -gneE97 gneE84 gneE74 gneE109 -gneE131"/>
    </vehicle>
    <vehicle id="74" depart="54.09">
        <route edges="gneE110 gneE112 gneE114 gneE116 gneE118 gneE119 gneE65 gneE66 gneE67 -gneE140"/>
    </vehicle>
    <vehicle id="75" depart="54.82">
        <route edges="gneE109 gneE110 gneE112 gneE114 gneE115"/>
    </vehicle>
    <vehicle id="76" depart="55.55">
        <route edges="gneE119 -gneE137"/>
    </vehicle>
    <vehicle id="77" depart="56.28">
        <route edges="-gneE89 -gneE79 gneE67 gneE68 -gneE108 -gneE106 -gneE104 gneE103 -gneE144"/>
    </vehicle>
    <vehicle id="78" depart="57.02">
        <route edges="gneE66 gneE67 gneE68 -gneE108 -gneE106 -gneE104 gneE103"/>
    </vehicle>
    <vehicle id="79" depart="57.75">
        <route edges="gneE109 gneE110 gneE112 gneE114 gneE115 gneE77 -gneE70"/>
    </vehicle>
    <vehicle id="80" depart="58.48">
        <route edges="gneE104 gneE106 gneE108 -gneE68 -gneE67 -gneE66 -gneE65 -gneE119 -gneE129"/>
    </vehicle>
    <vehicle id="81" depart="59.21">
        <route edges="-gneE103 -gneE143"/>
    </vehicle>
    <vehicle id="82" depart="59.94">
        <route edges="-gneE74 -gneE84 gneE97 gneE99 -gneE126"/>
    </vehicle>
    <vehicle id="83" depart="60.67">
        <route edges="-gneE84 gneE97 gneE99 gneE100 -gneE103 gneE104 gneE106 gneE108 -gneE124"/>
    </vehicle>
    <vehicle id="84" depart="61.40">
        <route edges="-gneE76"/>
    </vehicle>
    <vehicle id="85" depart="62.13">
        <route edges="gneE92 -gneE80 -gneE79 -gneE66 -gneE65 -gneE119 -gneE118 -gneE136"/>
    </vehicle>
    <vehicle id="86" depart="62.86">
        <route edges="gneE73 gneE74 -gneE149"/>
    </vehicle>
    <vehicle id="87" depart="63.59">
        <route edges="-gneE73"/>
    </vehicle>
    <vehicle id="88" depart="64.32">
        <route edges="-gneE68 -gneE67 gneE79"/>
    </vehicle>
    <vehicle id="89" depart="65.06">
        <route edges="-gneE89 -gneE79 gneE67 gneE68 -gneE108 -gneE106 -gneE104 gneE103 -gneE144"/>
    </vehicle>
    <vehicle id="90" depart="65.79">
        <route edges="-gneE82 gneE93 gneE102"/>
    </vehicle>
    <vehicle id="91" depart="66.52">
        <route edges="gneE119 gneE65 -gneE138"/>
    </vehicle>
    <vehicle id="92" depart="67.25">
        <route edges="gneE102 gneE103 -gneE100 -gneE125"/>
    </vehicle>
    <vehicle id="93" depart="67.98">
        <route edges="gneE68 -gneE108 -gneE106 -gneE104 gneE103 -gneE100 -gneE125"/>
    </vehicle>
    <vehicle id="94" depart="68.71">
        <route edges="-gneE80 -gneE79 -gneE66 -gneE65 -gneE119 -gneE130"/>
    </vehicle>
    <vehicle id="95" depart="69.44">
        <route edges="gneE102 gneE103 -gneE100 -gneE99 -gneE145"/>
    </vehicle>
    <vehicle id="96" depart="70.17">
        <route edges="gneE106 gneE108 -gneE68 -gneE67"/>
    </vehicle>
    <vehicle id="97" depart="70.90">
        <route edges="-gneE65 -gneE119 -gneE118 -gneE116 -gneE114 -gneE112 -gneE110 -gneE132"/>
    </vehicle>
    <vehicle id="98" depart="71.63">
        <route edges="gneE100 -gneE103 gneE104 gneE106 gneE108 -gneE124"/>
    </vehicle>
    <vehicle id="99" depart="72.37">
        <route edges="gneE65 gneE66 gneE67 gneE68 -gneE108 -gneE106 -gneE104"/>
    </vehicle>
    <vehicle id="100" depart="73.10">
        <route edges="gneE73 -gneE84 gneE97 gneE99 gneE100 -gneE103 -gneE102 gneE94"/>
    </vehicle>
    <vehicle id="101" depart="73.83">
        <route edges="gneE104 gneE106 gneE108 -gneE68 -gneE67 -gneE66 -gneE65 -gneE119"/>
    </vehicle>
    <vehicle id="102" depart="74.56">
        <route edges="-gneE66 -gneE65 -gneE119 -gneE118 -gneE136"/>
    </vehicle>
    <vehicle id="103" depart="75.29">
        <route edges="gneE107 -gneE89"/>
    </vehicle>
    <vehicle id="104" depart="76.02">
        <route edges="-gneE100 -gneE99 -gneE97 gneE84 gneE74 gneE109 gneE110 -gneE133"/>
    </vehicle>
    <vehicle id="105" depart="76.75">
        <route edges="-gneE102 -gneE93"/>
    </vehicle>
    <vehicle id="106" depart="77.48">
        <route edges="-gneE67 gneE79"/>
    </vehicle>
    <vehicle id="107" depart="78.21">
        <route edges="gneE100 -gneE103 -gneE102 gneE95"/>
    </vehicle>
    <vehicle id="108" depart="78.94">
        <route edges="-gneE64"/>
    </vehicle>
    <vehicle id="109" depart="79.68">
        <route edges="gneE105 gneE92 -gneE80"/>
    </vehicle>
    <vehicle id="110" depart="80.41">
        <route edges="-gneE103 gneE104 gneE106 gneE108 -gneE68 -gneE67 -gneE66 -gneE65 -gneE119 -gneE118 -gneE136"/>
    </vehicle>
    <vehicle id="111" depart="81.14">
        <route edges="-gneE119 -gneE118 -gneE116 -gneE114 -gneE112 -gneE110 -gneE109 -gneE149"/>
    </vehicle>
    <vehicle id="112" depart="81.87">
        <route edges="-gneE109 -gneE74 -gneE84 gneE97 gneE99 gneE100"/>
    </vehicle>
    <vehicle id="113" depart="82.60">
        <route edges="-gneE69"/>
    </vehicle>
    <vehicle id="114" depart="83.33">
        <route edges="gneE84 gneE74 -gneE149"/>
    </vehicle>
    <vehicle id="115" depart="84.06">
        <route edges="-gneE68 -gneE67 -gneE66 -gneE65 -gneE119 -gneE118 -gneE116 gneE115"/>
    </vehicle>
    <vehicle id="116" depart="84.79">
        <route edges="gneE118 gneE119 gneE65 gneE66 gneE67 gneE68 -gneE124"/>
    </vehicle>
    <vehicle id="117" depart="85.52">
        <route edges="-gneE118 -gneE116 -gneE114 -gneE112 -gneE110 -gneE109 -gneE74 -gneE73"/>
    </vehicle>
    <vehicle id="118" depart="86.25">
        <route edges="-gneE88 -gneE79 gneE67 -gneE140"/>
    </vehicle>
    <vehicle id="119" depart="86.98">
        <route edges="gneE65 gneE66 gneE67 gneE68 -gneE108 -gneE106 -gneE104 -gneE143"/>
    </vehicle>
    <vehicle id="120" depart="87.72">
        <route edges="gneE109 gneE110 gneE112 -gneE134"/>
    </vehicle>
    <vehicle id="121" depart="88.45">
        <route edges="-gneE115 -gneE114 -gneE112 -gneE110 -gneE109 -gneE149"/>
    </vehicle>
    <vehicle id="122" depart="89.18">
        <route edges="-gneE112 -gneE110 -gneE109 -gneE74 -gneE84 gneE97 gneE99 gneE100 -gneE144"/>
    </vehicle>
    <vehicle id="123" depart="89.91">
        <route edges="gneE102 gneE103 -gneE100 -gneE99 -gneE97 gneE84 gneE74 gneE109 -gneE131"/>
    </vehicle>
    <vehicle id="124" depart="90.64">
        <route edges="-gneE66 -gneE65 -gneE119 -gneE118 -gneE116 -gneE135"/>
    </vehicle>
    <vehicle id="125" depart="91.37">
        <route edges="-gneE110 -gneE109 -gneE74 -gneE84 gneE97 gneE99"/>
    </vehicle>
    <vehicle id="126" depart="92.10">
        <route edges="-gneE94 gneE102 gneE103 -gneE100 -gneE99 -gneE97 gneE84 gneE74 gneE109 -gneE132"/>
    </vehicle>
    <vehicle id="127" depart="92.83">
        <route edges="-gneE114 -gneE112 -gneE110 -gneE109 -gneE74 -gneE84 gneE97 gneE99 -gneE125"/>
    </vehicle>
    <vehicle id="128" depart="93.56">
        <route edges="gneE86 gneE72"/>
    </vehicle>
    <vehicle id="129" depart="94.29">
        <route edges="gneE65 gneE66 gneE67 gneE68 -gneE108 -gneE106 -gneE104 -gneE143"/>
    </vehicle>
    <vehicle id="130" depart="95.03">
        <route edges="-gneE109 -gneE74 -gneE84 gneE97 gneE99 -gneE125"/>
    </vehicle>
    <vehicle id="131" depart="95.76">
        <route edges="gneE108 -gneE68 -gneE140"/>
    </vehicle>
    <vehicle id="132" depart="96.49">
        <route edges="gneE105 gneE92 -gneE80"/>
    </vehicle>
    <vehicle id="133" depart="97.22">
        <route edges="gneE62 -gneE115 gneE116 gneE118 -gneE129"/>
    </vehicle>
    <vehicle id="134" depart="97.95">
        <route edges="-gneE100 -gneE99 -gneE97 gneE84 gneE74 gneE109 -gneE131"/>
    </vehicle>
    <vehicle id="135" depart="98.68">
        <route edges="-gneE118"/>
    </vehicle>
    <vehicle id="136" depart="99.41">
        <route edges="-gneE68 -gneE67 -gneE66 -gneE65 -gneE119 -gneE118 -gneE136"/>
    </vehicle>
    <vehicle id="137" depart="100.14">
        <route edges="-gneE115 -gneE114 -gneE112 -gneE110 -gneE109 -gneE74 -gneE84 gneE97"/>
    </vehicle>
    <vehicle id="138" depart="100.87">
        <route edges="gneE74 gneE109 gneE110 gneE112 gneE114 -gneE135"/>
    </vehicle>
    <vehicle id="139" depart="101.60">
        <route edges="-gneE115 -gneE114 -gneE112 -gneE110 -gneE109 -gneE74 -gneE84 gneE97 gneE99 -gneE126"/>
    </vehicle>
    <vehicle id="140" depart="102.34">
        <route edges="-gneE112 -gneE133"/>
    </vehicle>
    <vehicle id="141" depart="103.07">
        <route edges="gneE100 -gneE103 -gneE102 gneE95"/>
    </vehicle>
    <vehicle id="142" depart="103.80">
        <route edges="gneE73 gneE74 gneE109 gneE110 gneE112 gneE114 gneE116 -gneE136"/>
    </vehicle>
    <vehicle id="143" depart="104.53">
        <route edges="gneE73 -gneE84 gneE97 gneE99 gneE100 -gneE103 gneE104 gneE106 gneE108 -gneE68 -gneE67"/>
    </vehicle>
    <vehicle id="144" depart="105.26">
        <route edges="-gneE103 gneE104 gneE106 gneE108 -gneE68 -gneE67 -gneE66 -gneE65 -gneE119"/>
    </vehicle>
    <vehicle id="145" depart="105.99">
        <route edges="-gneE68 -gneE67 gneE79"/>
    </vehicle>
    <vehicle id="146" depart="106.72">
        <route edges="gneE93 gneE102 gneE104 gneE106 -gneE141"/>
    </vehicle>
    <vehicle id="147" depart="107.45">
        <route edges="gneE74 gneE109 gneE110 gneE112 gneE114 gneE115 gneE77"/>
    </vehicle>
    <vehicle id="148" depart="108.18">
        <route edges="-gneE63 -gneE115 -gneE114 -gneE112 -gneE110 -gneE132"/>
    </vehicle>
    <vehicle id="149" depart="108.91">
        <route edges="gneE109 gneE110 gneE112 gneE114 gneE115 gneE77"/>
    </vehicle>
    <vehicle id="150" depart="109.64">
        <route edges="-gneE112 -gneE110 -gneE109 -gneE74 -gneE84 gneE97 gneE99 -gneE126"/>
    </vehicle>
    <vehicle id="151" depart="110.38">
        <route edges="-gneE99 -gneE97 gneE84 -gneE73"/>
    </vehicle>
    <vehicle id="152" depart="111.11">
        <route edges="-gneE115 gneE116 gneE118 gneE119 gneE65 gneE66 -gneE139"/>
    </vehicle>
    <vehicle id="153" depart="111.84">
        <route edges="gneE70 -gneE77 -gneE115 -gneE114 -gneE112 -gneE110 -gneE132"/>
    </vehicle>
    <vehicle id="154" depart="112.57">
        <route edges="-gneE102"/>
    </vehicle>
    <vehicle id="155" depart="113.30">
        <route edges="-gneE135"/>
    </vehicle>
    <vehicle id="156" depart="114.03">
        <route edges="-gneE80 -gneE79 -gneE66 -gneE138"/>
    </vehicle>
    <vehicle id="157" depart="114.76">
        <route edges="-gneE119 -gneE118 -gneE116 -gneE114 -gneE112 -gneE110 -gneE109 -gneE74 -gneE73"/>
    </vehicle>
    <vehicle id="158" depart="115.49">
        <route edges="gneE99 gneE100 -gneE103 gneE104 gneE106 gneE108 -gneE124"/>
    </vehicle>
    <vehicle id="159" depart="116.22">
        <route edges="gneE84 gneE74 gneE109 gneE110 gneE112 gneE114 -gneE135"/>
    </vehicle>
    <vehicle id="160" depart="116.95">
        <route edges="gneE112 gneE114 gneE115 gneE77 -gneE70 -gneE69"/>
    </vehicle>
    <vehicle id="161" depart="117.69">
        <route edges="-gneE89 -gneE79 gneE67 gneE68 -gneE108 -gneE106 -gneE104 -gneE102 -gneE93 gneE82"/>
    </vehicle>
    <vehicle id="162" depart="118.42">
        <route edges="gneE119 gneE65 -gneE138"/>
    </vehicle>
    <vehicle id="163" depart="119.15">
        <route edges="-gneE77 -gneE115 -gneE114 -gneE112 -gneE110 -gneE109 -gneE74 -gneE84 gneE97 gneE99"/>
    </vehicle>
    <vehicle id="164" depart="119.88">
        <route edges="gneE76 gneE72 gneE73 -gneE84 gneE97 gneE99 gneE100 -gneE103 gneE104 -gneE142"/>
    </vehicle>
    <vehicle id="165" depart="120.61">
        <route edges="-gneE118"/>
    </vehicle>
    <vehicle id="166" depart="121.34">
        <route edges="-gneE104 gneE103 -gneE100 -gneE126"/>
    </vehicle>
    <vehicle id="167" depart="122.07">
        <route edges="-gneE114 -gneE112 -gneE110 -gneE109 -gneE149"/>
    </vehicle>
    <vehicle id="168" depart="122.80">
        <route edges="-gneE115 -gneE114 -gneE112 -gneE110 -gneE109 -gneE74 -gneE84"/>
    </vehicle>
    <vehicle id="169" depart="123.53">
        <route edges="gneE68 -gneE108 -gneE106 -gneE104 gneE103 -gneE100 -gneE126"/>
    </vehicle>
    <vehicle id="170" depart="124.26">
        <route edges="-gneE66 -gneE138"/>
    </vehicle>
    <vehicle id="171" depart="124.99">
        <route edges="gneE110 gneE112 gneE114 gneE116 gneE118 gneE119 gneE65 -gneE138"/>
    </vehicle>
    <vehicle id="172" depart="125.73">
        <route edges="-gneE103 gneE104 gneE106 gneE108 -gneE68 -gneE67"/>
    </vehicle>
    <vehicle id="173" depart="126.46">
        <route edges="-gneE109 -gneE74 -gneE84 gneE97 gneE99 -gneE126"/>
    </vehicle>
    <vehicle id="174" depart="127.19">
        <route edges="gneE118 gneE119 gneE65 gneE66 gneE67 gneE68 -gneE124"/>
    </vehicle>
    <vehicle id="175" depart="127.92">
        <route edges="-gneE90 gneE91"/>
    </vehicle>
    <vehicle id="176" depart="128.65">
        <route edges="-gneE119 -gneE130"/>
    </vehicle>
    <vehicle id="177" depart="129.38">
        <route edges="gneE60 gneE61"/>
    </vehicle>
    <vehicle id="178" depart="130.11">
        <route edges="-gneE68 -gneE67 -gneE66 -gneE65 -gneE119 -gneE118 -gneE116 gneE115 gneE63"/>
    </vehicle>
    <vehicle id="179" depart="130.84">
        <route edges="gneE93 gneE102 gneE103 -gneE144"/>
    </vehicle>
    <vehicle id="180" depart="131.57">
        <route edges="-gneE67 -gneE66 -gneE65 -gneE119 -gneE118 -gneE116 gneE115 gneE77 gneE71"/>
    </vehicle>
    <vehicle id="181" depart="132.30">
        <route edges="-gneE80 gneE89 -gneE107"/>
    </vehicle>
    <vehicle id="182" depart="133.04">
        <route edges="gneE98"/>
    </vehicle>
    <vehicle id="183" depart="133.77">
        <route edges="gneE60 gneE75 gneE85"/>
    </vehicle>
    <vehicle id="184" depart="134.50">
        <route edges="gneE118 gneE119 gneE65 gneE66 gneE67 gneE68 -gneE108 -gneE106 -gneE142"/>
    </vehicle>
    <vehicle id="185" depart="135.23">
        <route edges="-gneE84 gneE97 gneE99 gneE100 -gneE103 gneE104 gneE106 gneE108 -gneE68 -gneE67 gneE79"/>
    </vehicle>
    <vehicle id="186" depart="135.96">
        <route edges="gneE98 -gneE95 gneE94"/>
    </vehicle>
    <vehicle id="187" depart="136.69">
        <route edges="-gneE77"/>
    </vehicle>
    <vehicle id="188" depart="137.42">
        <route edges="-gneE109 -gneE149"/>
    </vehicle>
    <vehicle id="189" depart="138.15">
        <route edges="gneE108 -gneE68 -gneE140"/>
    </vehicle>
    <vehicle id="190" depart="138.88">
        <route edges="-gneE112 -gneE110 -gneE109 -gneE74 -gneE84 gneE97 -gneE145"/>
    </vehicle>
    <vehicle id="191" depart="139.61">
        <route edges="gneE87 -gneE92 -gneE105"/>
    </vehicle>
    <vehicle id="192" depart="140.35">
        <route edges="-gneE115 -gneE114 -gneE112 -gneE110 -gneE109 -gneE74 -gneE84 gneE97 gneE99 -gneE125"/>
    </vehicle>
    <vehicle id="193" depart="141.08">
        <route edges="gneE99 gneE100 -gneE103 gneE104 gneE106 gneE108 -gneE68 -gneE67 -gneE139"/>
    </vehicle>
    <vehicle id="194" depart="141.81">
        <route edges="gneE100 -gneE103 -gneE102 gneE95"/>
    </vehicle>
    <vehicle id="195" depart="142.54">
        <route edges="-gneE88 -gneE79 gneE67 gneE68 -gneE108 -gneE106 -gneE104 gneE103 -gneE100 -gneE125"/>
    </vehicle>
    <vehicle id="196" depart="143.27">
        <route edges="gneE102 gneE103 -gneE100 -gneE126"/>
    </vehicle>
    <vehicle id="197" depart="144.00">
        <route edges="-gneE66 -gneE65 -gneE119 -gneE130"/>
    </vehicle>
    <vehicle id="198" depart="144.73">
        <route edges="gneE66 gneE67 gneE68 -gneE108 -gneE106 -gneE104 gneE103 -gneE100 -gneE126"/>
    </vehicle>
    <vehicle id="199" depart="145.46">
        <route edges="gneE75 gneE73 -gneE84 gneE97 gneE99 gneE100 -gneE103 gneE104 gneE106 -gneE141"/>
    </vehicle>
    <vehicle id="200" depart="146.19">
        <route edges="gneE73 gneE74 gneE109 gneE110 gneE112 gneE114 gneE116 gneE118 gneE119 -gneE137"/>
    </vehicle>
    <vehicle id="201" depart="146.92">
        <route edges="-gneE74 -gneE73"/>
    </vehicle>
    <vehicle id="202" depart="147.65">
        <route edges="gneE100 -gneE103"/>
    </vehicle>
    <vehicle id="203" depart="148.39">
        <route edges="gneE66 gneE67 gneE68"/>
    </vehicle>
    <vehicle id="204" depart="149.12">
        <route edges="gneE72 gneE73 -gneE84"/>
    </vehicle>
    <vehicle id="205" depart="149.85">
        <route edges="-gneE89 -gneE79"/>
    </vehicle>
    <vehicle id="206" depart="150.58">
        <route edges="-gneE144"/>
    </vehicle>
    <vehicle id="207" depart="151.31">
        <route edges="-gneE77 -gneE115 -gneE114 -gneE112 -gneE110 -gneE109 -gneE74 -gneE84"/>
    </vehicle>
    <vehicle id="208" depart="152.04">
        <route edges="gneE60 gneE61 gneE76 -gneE86"/>
    </vehicle>
    <vehicle id="209" depart="152.77">
        <route edges="-gneE99 -gneE97 gneE84 -gneE73 -gneE72 -gneE76"/>
    </vehicle>
    <vehicle id="210" depart="153.50">
        <route edges="gneE103 -gneE100 -gneE99 -gneE97 gneE84 -gneE73"/>
    </vehicle>
    <vehicle id="211" depart="154.23">
        <route edges="-gneE77 -gneE115 -gneE114 -gneE112 -gneE110 -gneE131"/>
    </vehicle>
    <vehicle id="212" depart="154.96">
        <route edges="gneE65 gneE66 gneE67 gneE68"/>
    </vehicle>
    <vehicle id="213" depart="155.70">
        <route edges="gneE109 gneE110 gneE112 gneE114"/>
    </vehicle>
    <vehicle id="214" depart="156.43">
        <route edges="-gneE104 gneE103 -gneE100 -gneE99 -gneE97 gneE84 gneE74 gneE109"/>
    </vehicle>
    <vehicle id="215" depart="157.16">
        <route edges="-gneE80 -gneE79 gneE67 gneE68 -gneE123"/>
    </vehicle>
    <vehicle id="216" depart="157.89">
        <route edges="-gneE77 -gneE115 -gneE114 -gneE112 -gneE110 -gneE109 -gneE74 -gneE84 gneE97 gneE99"/>
    </vehicle>
    <vehicle id="217" depart="158.62">
        <route edges="-gneE110 -gneE109 -gneE149"/>
    </vehicle>
    <vehicle id="218" depart="159.35">
        <route edges="gneE110 gneE112 gneE114 gneE116 gneE118 gneE119 gneE65 gneE66 gneE67 -gneE140"/>
    </vehicle>
    <vehicle id="219" depart="160.08">
        <route edges="gneE97 gneE99 gneE100 -gneE103 gneE104 gneE106 gneE108 -gneE68 -gneE67 gneE79 gneE89"/>
    </vehicle>
    <vehicle id="220" depart="160.81">
        <route edges="gneE116 gneE118 gneE119 gneE65 gneE66 gneE67 gneE68 -gneE108 -gneE106 -gneE142"/>
    </vehicle>
    <vehicle id="221" depart="161.54">
        <route edges="-gneE95 gneE102 -gneE143"/>
    </vehicle>
    <vehicle id="222" depart="162.27">
        <route edges="-gneE100 -gneE99 -gneE97 gneE84 gneE74 gneE109 gneE110 -gneE133"/>
    </vehicle>
    <vehicle id="223" depart="163.01">
        <route edges="gneE76 gneE72 gneE73 -gneE147"/>
    </vehicle>
    <vehicle id="224" depart="163.74">
        <route edges="-gneE66 -gneE65 -gneE119 -gneE118 -gneE116"/>
    </vehicle>
    <vehicle id="225" depart="164.47">
        <route edges="-gneE88 gneE89"/>
    </vehicle>
    <vehicle id="226" depart="165.20">
        <route edges="gneE106 gneE108 -gneE68 -gneE67 -gneE66 -gneE65"/>
    </vehicle>
    <vehicle id="227" depart="165.93">
        <route edges="-gneE63 -gneE115 -gneE114 -gneE134"/>
    </vehicle>
    <vehicle id="228" depart="166.66">
        <route edges="gneE104 gneE106 gneE108 -gneE68 -gneE67 -gneE66 -gneE65 -gneE119"/>
    </vehicle>
    <vehicle id="229" depart="167.39">
        <route edges="-gneE79 gneE67 gneE68 -gneE108 -gneE106 -gneE104 -gneE102 -gneE93"/>
    </vehicle>
    <vehicle id="230" depart="168.12">
        <route edges="-gneE108 -gneE106 -gneE104 gneE103 -gneE100 -gneE126"/>
    </vehicle>
    <vehicle id="231" depart="168.85">
        <route edges="gneE87 -gneE80 -gneE79 gneE67 gneE68 -gneE108 -gneE106 -gneE104 -gneE102"/>
    </vehicle>
    <vehicle id="232" depart="169.58">
        <route edges="-gneE107"/>
    </vehicle>
    <vehicle id="233" depart="170.31">