<?xml version="1.0" encoding="UTF-8"?>

<!-- generated on 2022-04-29 14:07:01 by Eclipse SUMO duarouter Version 1.10.0
<configuration xmlns:xsi="http://www.w3.org/2001/XMLSchema-instance" xsi:noNamespaceSchemaLocation="http://sumo.dlr.de/xsd/duarouterConfiguration.xsd">

    <input>
        <net-file value="../ltn/ltnGrid.net.xml"/>
        <route-files value="../ltn/ltnTrips.rou.xml"/>
        <junction-taz value="true"/>
    </input>

    <output>
        <output-file value="../ltn/ltnRoutes.rou.xml"/>
        <alternatives-output value="../ltn/ltnRoutes.rou.alt.xml"/>
    </output>

</configuration>
-->

<routes xmlns:xsi="http://www.w3.org/2001/XMLSchema-instance" xsi:noNamespaceSchemaLocation="http://sumo.dlr.de/xsd/routes_file.xsd">
    <vehicle id="0" depart="0.00">
        <route edges="gneE93 gneE102 gneE103 -gneE100"/>
    </vehicle>
    <vehicle id="1" depart="0.51">
        <route edges="-gneE116"/>
    </vehicle>
    <vehicle id="2" depart="1.01">
        <route edges="-gneE68"/>
    </vehicle>
    <vehicle id="3" depart="1.52">
        <route edges="-gneE66 -gneE65"/>
    </vehicle>
    <vehicle id="4" depart="2.03">
        <route edges="gneE104 gneE106 gneE108 -gneE68 -gneE67 -gneE66 -gneE65 -gneE119 -gneE118 -gneE116 gneE115"/>
    </vehicle>
    <vehicle id="5" depart="2.53">
        <route edges="-gneE80 -gneE79 -gneE66"/>
    </vehicle>
    <vehicle id="6" depart="3.04">
        <route edges="-gneE118"/>
    </vehicle>
    <vehicle id="7" depart="3.55">
        <route edges="-gneE131"/>
    </vehicle>
    <vehicle id="8" depart="4.05">
        <route edges="-gneE80 -gneE79 gneE67 gneE68 -gneE123"/>
    </vehicle>
    <vehicle id="9" depart="4.56">
        <route edges="-gneE94 gneE95 -gneE98"/>
    </vehicle>
    <vehicle id="10" depart="5.07">
        <route edges="gneE101 -gneE98"/>
    </vehicle>
    <vehicle id="11" depart="5.57">
        <route edges="gneE118 gneE119 gneE65 gneE66 gneE67 gneE68 -gneE108 -gneE106"/>
    </vehicle>
    <vehicle id="12" depart="6.08">
        <route edges="gneE96 -gneE85 gneE73 gneE74 gneE109 gneE110 gneE112 gneE114 gneE115 gneE63"/>
    </vehicle>
    <vehicle id="13" depart="6.59">
        <route edges="-gneE88 -gneE79 -gneE66 -gneE65 -gneE119 -gneE129"/>
    </vehicle>
    <vehicle id="14" depart="7.09">
        <route edges="gneE68 -gneE108 -gneE106 -gneE104 gneE103 -gneE100 -gneE99"/>
    </vehicle>
    <vehicle id="15" depart="7.60">
        <route edges="-gneE65 -gneE119 -gneE118 -gneE116 -gneE114 -gneE112"/>
    </vehicle>
    <vehicle id="16" depart="8.11">
        <route edges="gneE72 gneE73 -gneE84 gneE97 gneE99 gneE100 -gneE103 gneE104"/>
    </vehicle>
    <vehicle id="17" depart="8.61">
        <route edges="gneE77 gneE71"/>
    </vehicle>
    <vehicle id="18" depart="9.12">
        <route edges="gneE108 -gneE68 -gneE67 -gneE66 -gneE65 -gneE119 -gneE118 -gneE116 gneE115 gneE63"/>
    </vehicle>
    <vehicle id="19" depart="9.63">
        <route edges="-gneE108 -gneE106 -gneE104 -gneE102 gneE95"/>
    </vehicle>
    <vehicle id="20" depart="10.13">
        <route edges="-gneE93 gneE82"/>
    </vehicle>
    <vehicle id="21" depart="10.64">
        <route edges="-gneE97 gneE84 gneE74 gneE109 gneE110 gneE112 gneE114 gneE116 gneE118 -gneE130"/>
    </vehicle>
    <vehicle id="22" depart="11.15">
        <route edges="gneE88"/>
    </vehicle>
    <vehicle id="23" depart="11.65">
        <route edges="gneE100 -gneE103 gneE104"/>
    </vehicle>
    <vehicle id="24" depart="12.16">
        <route edges="gneE67 gneE68 -gneE108 -gneE106 -gneE104 gneE103 -gneE100 -gneE99 -gneE97"/>
    </vehicle>
    <vehicle id="25" depart="12.67">
        <route edges="-gneE110 -gneE109 -gneE74 -gneE84 gneE97 gneE99 gneE100 -gneE103 -gneE102 gneE95"/>
    </vehicle>
    <vehicle id="26" depart="13.17">
        <route edges="gneE110 gneE112"/>
    </vehicle>
    <vehicle id="27" depart="13.68">
        <route edges="gneE107 -gneE89 gneE88"/>
    </vehicle>
    <vehicle id="28" depart="14.19">
        <route edges="gneE114 gneE116 gneE118 gneE119 gneE65 gneE66 gneE79 gneE80 -gneE92"/>
    </vehicle>
    <vehicle id="29" depart="14.69">
        <route edges="gneE109 gneE110 gneE112 gneE114 gneE116 gneE118 -gneE130"/>
    </vehicle>
    <vehicle id="30" depart="15.20">
        <route edges="-gneE110 -gneE109 -gneE74 -gneE84 gneE97 gneE99"/>
    </vehicle>
    <vehicle id="31" depart="15.71">
        <route edges="-gneE79 -gneE66 -gneE65"/>
    </vehicle>
    <vehicle id="32" depart="16.21">
        <route edges="-gneE77 -gneE115 -gneE114 -gneE112 -gneE110 -gneE109 -gneE74 -gneE84 gneE97"/>
    </vehicle>
    <vehicle id="33" depart="16.72">
        <route edges="-gneE61 gneE75 gneE85"/>
    </vehicle>
    <vehicle id="34" depart="17.23">
        <route edges="gneE92 -gneE80 -gneE79 -gneE66 -gneE65 -gneE119 -gneE130"/>
    </vehicle>
    <vehicle id="35" depart="17.73">
        <route edges="gneE104 gneE106"/>
    </vehicle>
    <vehicle id="36" depart="18.24">
        <route edges="-gneE89 -gneE79 -gneE66 -gneE65 -gneE119 -gneE118 -gneE116 -gneE114 -gneE112 -gneE110 -gneE109"/>
    </vehicle>
    <vehicle id="37" depart="18.75">
        <route edges="gneE81 gneE93 gneE95 gneE96 -gneE85 -gneE75"/>
    </vehicle>
    <vehicle id="38" depart="19.25">
        <route edges="gneE102 gneE104 gneE106 gneE108 -gneE68 -gneE67 -gneE66 -gneE65 -gneE119 -gneE118"/>
    </vehicle>
    <vehicle id="39" depart="19.76">
        <route edges="-gneE115 gneE116 gneE118 gneE119 gneE65 gneE66"/>
    </vehicle>
    <vehicle id="40" depart="20.27">
        <route edges="-gneE79 gneE67 gneE68 -gneE108 -gneE106 -gneE104 -gneE102 -gneE93 gneE86 -gneE76 -gneE61"/>
    </vehicle>
    <vehicle id="41" depart="20.77">
        <route edges="gneE112 gneE114 gneE116"/>
    </vehicle>
    <vehicle id="42" depart="21.28">
        <route edges="-gneE103 gneE104 gneE106 gneE108 -gneE124"/>
    </vehicle>
    <vehicle id="43" depart="21.79">
        <route edges="gneE81 gneE82 gneE83"/>
    </vehicle>
    <vehicle id="44" depart="22.29">
        <route edges="gneE77 -gneE70"/>
    </vehicle>
    <vehicle id="45" depart="22.80">
        <route edges="-gneE106"/>
    </vehicle>
    <vehicle id="46" depart="23.31">
        <route edges="-gneE80 -gneE79 -gneE66 -gneE65"/>
    </vehicle>
    <vehicle id="47" depart="23.81">
        <route edges="-gneE66 -gneE65 -gneE119 -gneE118 -gneE116 -gneE114 -gneE112"/>
    </vehicle>
    <vehicle id="48" depart="24.32">
        <route edges="gneE80 -gneE92 -gneE105"/>
    </vehicle>
    <vehicle id="49" depart="24.83">
        <route edges="-gneE79 -gneE66 -gneE65 -gneE119 -gneE118 -gneE116 gneE115"/>
    </vehicle>
    <vehicle id="50" depart="25.33">
        <route edges="-gneE89 -gneE79 -gneE66 -gneE65 -gneE119 -gneE118 -gneE116 -gneE114 -gneE112"/>
    </vehicle>
    <vehicle id="51" depart="25.84">
        <route edges="gneE100 -gneE103"/>
    </vehicle>
    <vehicle id="52" depart="26.35">
        <route edges="-gneE68"/>
    </vehicle>
    <vehicle id="53" depart="26.85">
        <route edges="gneE98 gneE96 -gneE82 -gneE81"/>
    </vehicle>
    <vehicle id="54" depart="27.36">
        <route edges="gneE119 gneE65 gneE66 gneE67 gneE68 -gneE124"/>
    </vehicle>
    <vehicle id="55" depart="27.87">
        <route edges="gneE87 -gneE80 -gneE79 gneE67 gneE68 -gneE108 -gneE106 -gneE104"/>
    </vehicle>
    <vehicle id="56" depart="28.37">
        <route edges="gneE76 gneE72 gneE73 -gneE84 gneE97 gneE99 gneE100 -gneE103 -gneE102 gneE94"/>
    </vehicle>
    <vehicle id="57" depart="28.88">
        <route edges="-gneE115 -gneE114 -gneE112 -gneE110 -gneE109 -gneE74 -gneE73 gneE85"/>
    </vehicle>
    <vehicle id="58" depart="29.39">
        <route edges="gneE73 gneE74 gneE109 gneE110 gneE112 gneE114 gneE116 gneE118 gneE119"/>
    </vehicle>
    <vehicle id="59" depart="29.89">
        <route edges="gneE112 gneE114 gneE116"/>
    </vehicle>
    <vehicle id="60" depart="30.40">
        <route edges="gneE81 gneE93 gneE94 -gneE94 -gneE93 gneE86 -gneE76"/>
    </vehicle>
    <vehicle id="61" depart="30.91">
        <route edges="-gneE118 -gneE116 -gneE114 -gneE112 -gneE110 -gneE109"/>
    </vehicle>
    <vehicle id="62" depart="31.41">
        <route edges="-gneE104 -gneE102 -gneE93 gneE82"/>
    </vehicle>
    <vehicle id="63" depart="31.92">
        <route edges="gneE102 gneE104 gneE106 gneE108 -gneE68 -gneE67 -gneE66 -gneE65"/>
    </vehicle>
    <vehicle id="64" depart="32.43">
        <route edges="gneE110 gneE112 gneE114 gneE115 gneE77 -gneE70"/>
    </vehicle>
    <vehicle id="65" depart="32.93">
        <route edges="-gneE79"/>
    </vehicle>
    <vehicle id="66" depart="33.44">
        <route edges="gneE112 gneE114 gneE115 gneE77 -gneE70"/>
    </vehicle>
    <vehicle id="67" depart="33.95">
        <route edges="gneE66"/>
    </vehicle>
    <vehicle id="68" depart="34.45">
        <route edges="-gneE106 -gneE104"/>
    </vehicle>
    <vehicle id="69" depart="34.96">
        <route edges="gneE119 gneE65 gneE66"/>
    </vehicle>
    <vehicle id="70" depart="35.47">
        <route edges="gneE114"/>
    </vehicle>
    <vehicle id="71" depart="35.97">
        <route edges="gneE75 gneE73 gneE74 gneE109 gneE110 gneE112 gneE114"/>
    </vehicle>
    <vehicle id="72" depart="36.48">
        <route edges="-gneE88 -gneE79 -gneE66 -gneE65 -gneE119 -gneE130"/>
    </vehicle>
    <vehicle id="73" depart="36.99">
        <route edges="gneE104 gneE106 gneE108 -gneE68 -gneE67 -gneE66 -gneE65 -gneE119 -gneE129"/>
    </vehicle>
    <vehicle id="74" depart="37.49">
        <route edges="gneE102 gneE104 gneE106 gneE108 -gneE123"/>
    </vehicle>
    <vehicle id="75" depart="38.00">
        <route edges="-gneE96 -gneE101"/>
    </vehicle>
    <vehicle id="76" depart="38.51">
        <route edges="gneE87 -gneE80 -gneE79 gneE67 gneE68 -gneE123"/>
    </vehicle>
    <vehicle id="77" depart="39.01">
        <route edges="-gneE119 -gneE118 -gneE116 -gneE114 -gneE112 -gneE110 -gneE131"/>
    </vehicle>
    <vehicle id="78" depart="39.52">
        <route edges="-gneE118 -gneE116"/>
    </vehicle>
    <vehicle id="79" depart="40.03">
        <route edges="-gneE108 -gneE106 -gneE104 -gneE102 -gneE93 gneE86 gneE72"/>
    </vehicle>
    <vehicle id="80" depart="40.53">
        <route edges="gneE73 -gneE84 gneE97 gneE99 gneE100 -gneE103 gneE104"/>
    </vehicle>
    <vehicle id="81" depart="41.04">
        <route edges="-gneE63 -gneE115 -gneE114 -gneE112 -gneE110 -gneE131"/>
    </vehicle>
    <vehicle id="82" depart="41.55">
        <route edges="gneE98 gneE96 -gneE85 -gneE75"/>
    </vehicle>
    <vehicle id="83" depart="42.05">
        <route edges="-gneE94 -gneE93 gneE82"/>
    </vehicle>
    <vehicle id="84" depart="42.56">
        <route edges="-gneE118"/>
    </vehicle>
    <vehicle id="85" depart="43.07">
        <route edges="-gneE118 -gneE116 -gneE114 -gneE112 -gneE110 -gneE109 -gneE74 -gneE73 -gneE72 -gneE86"/>
    </vehicle>
    <vehicle id="86" depart="43.57">
        <route edges="-gneE66 -gneE65 -gneE119 -gneE118 -gneE116 -gneE114 -gneE112 -gneE110 -gneE109 -gneE74"/>
    </vehicle>
    <vehicle id="87" depart="44.08">
        <route edges="-gneE112 -gneE110 -gneE109 -gneE74 -gneE84 gneE97 gneE99 gneE100 -gneE103 gneE104"/>
    </vehicle>
    <vehicle id="88" depart="44.59">
        <route edges="gneE96 -gneE85 gneE73 gneE74 gneE109 gneE110 gneE112 gneE114"/>
    </vehicle>
    <vehicle id="89" depart="45.10">
        <route edges="-gneE74 -gneE84 gneE97 gneE99 gneE100 -gneE103 gneE104 gneE106 gneE108 -gneE123"/>
    </vehicle>
    <vehicle id="90" depart="45.60">
        <route edges="gneE73 -gneE84 gneE97 gneE99 gneE100 -gneE103 gneE104 gneE106 gneE108 -gneE123"/>
    </vehicle>
    <vehicle id="91" depart="46.11">
        <route edges="-gneE109 -gneE74 -gneE73 -gneE72 -gneE76"/>
    </vehicle>
    <vehicle id="92" depart="46.62">
        <route edges="gneE62 -gneE115 -gneE114 -gneE112 -gneE110 -gneE132"/>
    </vehicle>
    <vehicle id="93" depart="47.12">
        <route edges="-gneE63 -gneE115 gneE116 gneE118 gneE119 gneE65 gneE66 gneE67"/>
    </vehicle>
    <vehicle id="94" depart="47.63">
        <route edges="gneE119 gneE65"/>
    </vehicle>
    <vehicle id="95" depart="48.14">
        <route edges="-gneE95 gneE94"/>
    </vehicle>
    <vehicle id="96" depart="48.64">
        <route edges="-gneE79 gneE67 gneE68"/>
    </vehicle>
    <vehicle id="97" depart="49.15">
        <route edges="-gneE112"/>
    </vehicle>
    <vehicle id="98" depart="49.66">
        <route edges="gneE86 gneE72 gneE73 gneE74 gneE109 gneE110 gneE112 gneE114 gneE116"/>
    </vehicle>
    <vehicle id="99" depart="50.16">
        <route edges="-gneE87"/>
    </vehicle>
    <vehicle id="100" depart="50.67">
        <route edges="gneE106"/>
    </vehicle>
    <vehicle id="101" depart="51.18">
        <route edges="-gneE66 -gneE65 -gneE119 -gneE118 -gneE116"/>
    </vehicle>
    <vehicle id="102" depart="51.68">
        <route edges="-gneE93 gneE86 gneE72 gneE73 gneE74 gneE109 -gneE132"/>
    </vehicle>
    <vehicle id="103" depart="52.19">
        <route edges="-gneE89 -gneE79 gneE67 gneE68 -gneE108 -gneE106 -gneE104 -gneE102 -gneE93 gneE86 -gneE76 -gneE61"/>
    </vehicle>
    <vehicle id="104" depart="52.70">
        <route edges="-gneE116 gneE115 gneE77"/>
    </vehicle>
    <vehicle id="105" depart="53.20">
        <route edges="-gneE89 -gneE79 -gneE66 -gneE65 -gneE119 -gneE118 -gneE116 -gneE114 -gneE112 -gneE110 -gneE109 -gneE74"/>
    </vehicle>
    <vehicle id="106" depart="53.71">
        <route edges="gneE84 gneE74 gneE109 gneE110 gneE112 gneE114 gneE116 gneE118 gneE119"/>
    </vehicle>
    <vehicle id="107" depart="54.22">
        <route edges="-gneE88"/>
    </vehicle>
    <vehicle id="108" depart="54.72">
        <route edges="gneE72 gneE73 -gneE84 gneE97 gneE99 gneE100 -gneE103 -gneE102"/>
    </vehicle>
    <vehicle id="109" depart="55.23">
        <route edges="gneE91 gneE92 -gneE87"/>
    </vehicle>
    <vehicle id="110" depart="55.74">
        <route edges="gneE98 gneE96 -gneE85 -gneE75 -gneE111"/>
    </vehicle>
    <vehicle id="111" depart="56.24">
        <route edges="-gneE65 -gneE119 -gneE118 -gneE116"/>
    </vehicle>
    <vehicle id="112" depart="56.75">
        <route edges="gneE119 gneE65 gneE66 gneE67 gneE68 -gneE108 -gneE106 -gneE104 -gneE102 gneE95"/>
    </vehicle>
    <vehicle id="113" depart="57.26">
        <route edges="gneE68 -gneE108 -gneE106 -gneE104 -gneE102 -gneE93"/>
    </vehicle>
    <vehicle id="114" depart="57.76">
        <route edges="-gneE88"/>
    </vehicle>
    <vehicle id="115" depart="58.27">
        <route edges="-gneE80 -gneE79"/>
    </vehicle>
    <vehicle id="116" depart="58.78">
        <route edges="gneE100 -gneE103 gneE104 gneE106 gneE108 -gneE68 -gneE67 gneE79"/>
    </vehicle>
    <vehicle id="117" depart="59.28">
        <route edges="gneE92 -gneE80 -gneE79 -gneE66 -gneE65 -gneE119"/>
    </vehicle>
    <vehicle id="118" depart="59.79">
        <route edges="-gneE67 -gneE66 -gneE65 -gneE119 -gneE118 -gneE116 -gneE114 -gneE112"/>
    </vehicle>
    <vehicle id="119" depart="60.30">
        <route edges="gneE98 -gneE95 -gneE93 gneE86 -gneE76 -gneE113"/>
    </vehicle>
    <vehicle id="120" depart="60.80">
        <route edges="-gneE110 -gneE109 -gneE74 -gneE84 gneE97 gneE99 gneE100"/>
    </vehicle>
    <vehicle id="121" depart="61.31">
        <route edges="-gneE94 -gneE93 gneE86 gneE72"/>
    </vehicle>
    <vehicle id="122" depart="61.82">
        <route edges="gneE65"/>
    </vehicle>
    <vehicle id="123" depart="62.32">
        <route edges="gneE66 gneE67 gneE68 -gneE108 -gneE106 -gneE104 gneE103 -gneE100 -gneE125"/>
    </vehicle>
    <vehicle id="124" depart="62.83">
        <route edges="-gneE116 -gneE114 -gneE112 -gneE110 -gneE109 -gneE74 -gneE84 gneE97 gneE99"/>
    </vehicle>
    <vehicle id="125" depart="63.34">
        <route edges="gneE100 -gneE103 -gneE102 -gneE93 gneE86 -gneE76"/>
    </vehicle>
    <vehicle id="126" depart="63.84">
        <route edges="-gneE112"/>
    </vehicle>
    <vehicle id="127" depart="64.35">
        <route edges="-gneE71 -gneE77 -gneE115 gneE116 gneE118 gneE119 gneE65 gneE66 gneE79"/>
    </vehicle>
    <vehicle id="128" depart="64.86">
        <route edges="gneE96 -gneE85 -gneE75"/>
    </vehicle>
    <vehicle id="129" depart="65.36">
        <route edges="-gneE102 -gneE93 gneE86 gneE72"/>
    </vehicle>
    <vehicle id="130" depart="65.87">
        <route edges="-gneE115 -gneE114 -gneE112 -gneE110 -gneE109 -gneE74 -gneE73 -gneE75"/>
    </vehicle>
    <vehicle id="131" depart="66.38">
        <route edges="gneE87 -gneE80 gneE89 -gneE107"/>
    </vehicle>
    <vehicle id="132" depart="66.88">
        <route edges="gneE75 gneE73 gneE74 gneE109 gneE110 gneE112 gneE114 gneE116 gneE118 gneE119 gneE65"/>
    </vehicle>
    <vehicle id="133" depart="67.39">
        <route edges="-gneE109 -gneE74 -gneE84 gneE97 gneE99 gneE100 -gneE103 gneE104 gneE106 gneE108"/>
    </vehicle>
    <vehicle id="134" depart="67.90">
        <route edges="gneE62 -gneE115"/>
    </vehicle>
    <vehicle id="135" depart="68.40">
        <route edges="-gneE118 -gneE116"/>
    </vehicle>
    <vehicle id="136" depart="68.91">
        <route edges="-gneE66 -gneE65"/>
    </vehicle>
    <vehicle id="137" depart="69.42">
        <route edges="-gneE100 -gneE99 -gneE97 gneE84 gneE74 gneE109 gneE110 gneE112 gneE114 gneE115 gneE63"/>
    </vehicle>
    <vehicle id="138" depart="69.92">
        <route edges="gneE116 gneE118 gneE119 gneE65 gneE66"/>
    </vehicle>
    <vehicle id="139" depart="70.43">
        <route edges="gneE66"/>
    </vehicle>
    <vehicle id="140" depart="70.94">
        <route edges="gneE104 gneE106"/>
    </vehicle>
    <vehicle id="141" depart="71.44">
        <route edges="gneE110 gneE112 gneE114 gneE115 gneE77 -gneE70"/>
    </vehicle>
    <vehicle id="142" depart="71.95">
        <route edges="-gneE104 -gneE102 gneE95"/>
    </vehicle>
    <vehicle id="143" depart="72.46">
        <route edges="-gneE112 -gneE110 -gneE109 -gneE74 -gneE84 gneE97 gneE99 -gneE126"/>
    </vehicle>
    <vehicle id="144" depart="72.96">
        <route edges="-gneE85 -gneE72"/>
    </vehicle>
    <vehicle id="145" depart="73.47">
        <route edges="-gneE66 -gneE65 -gneE119 -gneE118 -gneE116 gneE115 gneE77 gneE71"/>
    </vehicle>
    <vehicle id="146" depart="73.98">
        <route edges="-gneE89 -gneE79 -gneE66 -gneE65 -gneE119"/>
    </vehicle>
    <vehicle id="147" depart="74.48">
        <route edges="gneE118 gneE119 gneE65 gneE66 gneE67 gneE68 -gneE108 -gneE106 -gneE104 -gneE102 gneE95"/>
    </vehicle>
    <vehicle id="148" depart="74.99">
        <route edges="-gneE89 -gneE79 gneE67 gneE68 -gneE108 -gneE106 -gneE104 gneE103 -gneE100 -gneE125"/>
    </vehicle>
    <vehicle id="149" depart="75.50">
        <route edges="gneE116"/>
    </vehicle>
    <vehicle id="150" depart="76.00">
        <route edges="gneE81"/>
    </vehicle>
    <vehicle id="151" depart="76.51">
        <route edges="-gneE129"/>
    </vehicle>
    <vehicle id="152" depart="77.02">
        <route edges="gneE72 gneE73 -gneE84 gneE97 gneE99 gneE100 -gneE103 -gneE102"/>
    </vehicle>
    <vehicle id="153" depart="77.52">
        <route edges="-gneE106 -gneE104 -gneE102 -gneE93 gneE86"/>
    </vehicle>
    <vehicle id="154" depart="78.03">
        <route edges="-gneE103 -gneE102 -gneE93 gneE86 -gneE76"/>
    </vehicle>
    <vehicle id="155" depart="78.54">
        <route edges="-gneE103 gneE104 gneE106 gneE108 -gneE68 -gneE67 -gneE66 -gneE65 -gneE119 -gneE129"/>
    </vehicle>
    <vehicle id="156" depart="79.04">
        <route edges="gneE65 gneE66 gneE79 gneE89"/>
    </vehicle>
    <vehicle id="157" depart="79.55">
        <route edges="gneE72 gneE73 -gneE84 gneE97 gneE99 -gneE125"/>
    </vehicle>
    <vehicle id="158" depart="80.06">
        <route edges="gneE73 gneE74 gneE109"/>
    </vehicle>
    <vehicle id="159" depart="80.56">
        <route edges="gneE108 -gneE68 -gneE67 -gneE66 -gneE65 -gneE119 -gneE129"/>
    </vehicle>
    <vehicle id="160" depart="81.07">
        <route edges="gneE104 gneE106 gneE108 -gneE68"/>
    </vehicle>
    <vehicle id="161" depart="81.58">
        <route edges="-gneE66 -gneE65 -gneE119 -gneE118 -gneE116 -gneE114 -gneE112"/>
    </vehicle>
    <vehicle id="162" depart="82.08">
        <route edges="-gneE71 -gneE77 -gneE115 gneE116 gneE118 -gneE129"/>
    </vehicle>
    <vehicle id="163" depart="82.59">
        <route edges="-gneE74"/>
    </vehicle>
    <vehicle id="164" depart="83.10">
        <route edges="-gneE89 -gneE79 -gneE66 -gneE65 -gneE119 -gneE118 -gneE116 -gneE114 -gneE112 -gneE110 -gneE109 -gneE74"/>
    </vehicle>
    <vehicle id="165" depart="83.60">
        <route edges="-gneE68 -gneE67 -gneE66 -gneE65 -gneE119 -gneE129"/>
    </vehicle>
    <vehicle id="166" depart="84.11">
        <route edges="-gneE112"/>
    </vehicle>
    <vehicle id="167" depart="84.62">
        <route edges="-gneE95 -gneE93 gneE86"/>
    </vehicle>
    <vehicle id="168" depart="85.12">
        <route edges="gneE109 gneE110 gneE112 gneE114 gneE116 gneE118 -gneE130"/>
    </vehicle>
    <vehicle id="169" depart="85.63">
        <route edges="-gneE68"/>
    </vehicle>
    <vehicle id="170" depart="86.14">
        <route edges="-gneE68 -gneE67 -gneE66 -gneE65 -gneE119 -gneE118 -gneE116"/>
    </vehicle>
    <vehicle id="171" depart="86.64">
        <route edges="-gneE79 gneE67 gneE68 -gneE108 -gneE106 -gneE104 gneE103 -gneE100 -gneE126"/>
    </vehicle>
    <vehicle id="172" depart="87.15">
        <route edges="-gneE71 -gneE77 -gneE115 gneE116 gneE118 gneE119 gneE65 gneE66 gneE67 gneE68 -gneE123"/>
    </vehicle>
    <vehicle id="173" depart="87.66">
        <route edges="gneE112 gneE114 gneE115 gneE77"/>
    </vehicle>
    <vehicle id="174" depart="88.16">
        <route edges="-gneE118 -gneE116 -gneE114"/>
    </vehicle>
    <vehicle id="175" depart="88.67">
        <route edges="gneE102 gneE104 gneE106 gneE108 -gneE68 -gneE67 gneE79"/>
    </vehicle>
    <vehicle id="176" depart="89.18">
        <route edges="gneE66 gneE67 gneE68 -gneE108 -gneE106 -gneE104"/>
    </vehicle>
    <vehicle id="177" depart="89.68">
        <route edges="gneE73 -gneE84 gneE97 gneE99 gneE100 -gneE103 -gneE102"/>
    </vehicle>
    <vehicle id="178" depart="90.19">
        <route edges="-gneE118 -gneE116 gneE115"/>
    </vehicle>
    <vehicle id="179" depart="90.70">
        <route edges="-gneE95 gneE102 gneE104 gneE106 gneE108 -gneE68 -gneE67 gneE79 gneE89"/>
    </vehicle>
    <vehicle id="180" depart="91.20">
        <route edges="-gneE63 -gneE115 gneE116 gneE118 gneE119 gneE65 gneE66 gneE67 gneE68"/>
    </vehicle>
    <vehicle id="181" depart="91.71">
        <route edges="-gneE108 -gneE106 -gneE104 -gneE102 -gneE93 gneE86 gneE72"/>
    </vehicle>
    <vehicle id="182" depart="92.22">
        <route edges="-gneE118"/>
    </vehicle>
    <vehicle id="183" depart="92.72">
        <route edges="gneE76 gneE72 gneE73 -gneE84 gneE97 gneE99 -gneE126"/>
    </vehicle>
    <vehicle id="184" depart="93.23">
        <route edges="gneE104 gneE106"/>
    </vehicle>
    <vehicle id="185" depart="93.74">
        <route edges="gneE68 -gneE108 -gneE106 -gneE104 gneE103 -gneE100 -gneE99 -gneE97"/>
    </vehicle>
    <vehicle id="186" depart="94.24">
        <route edges="gneE92 -gneE87"/>
    </vehicle>
    <vehicle id="187" depart="94.75">
        <route edges="gneE75 gneE73 gneE74 gneE109 gneE110 gneE112 gneE114 gneE116 gneE118 gneE119 gneE65"/>
    </vehicle>
    <vehicle id="188" depart="95.26">
        <route edges="-gneE78"/>
    </vehicle>
    <vehicle id="189" depart="95.76">
        <route edges="gneE75 gneE73 -gneE84 gneE97 gneE99 gneE100 -gneE103 gneE104 gneE106 gneE108 -gneE123"/>
    </vehicle>
    <vehicle id="190" depart="96.27">
        <route edges="gneE65 gneE66 gneE67 gneE68"/>
    </vehicle>
    <vehicle id="191" depart="96.78">
        <route edges="gneE119 gneE65 gneE66 gneE67"/>
    </vehicle>
    <vehicle id="192" depart="97.28">
        <route edges="gneE86"/>
    </vehicle>
    <vehicle id="193" depart="97.79">
        <route edges="-gneE67 -gneE66 -gneE65 -gneE119 -gneE118 -gneE116 -gneE114 -gneE112 -gneE110"/>
    </vehicle>
    <vehicle id="194" depart="98.30">
        <route edges="-gneE103 gneE104"/>
    </vehicle>
    <vehicle id="195" depart="98.80">
        <route edges="gneE94"/>
    </vehicle>
    <vehicle id="196" depart="99.31">
        <route edges="-gneE92 -gneE105"/>
    </vehicle>
    <vehicle id="197" depart="99.82">
        <route edges="-gneE97 gneE84 gneE74 gneE109 gneE110 gneE112 gneE114 gneE115 gneE63"/>
    </vehicle>
    <vehicle id="198" depart="100.32">
        <route edges="-gneE89 -gneE79 -gneE66 -gneE65 -gneE119 -gneE118 -gneE116 gneE115 gneE63"/>
    </vehicle>
    <vehicle id="199" depart="100.83">
        <route edges="gneE119"/>
    </vehicle>
    <vehicle id="200" depart="101.34">
        <route edges="-gneE119 -gneE118 -gneE116 -gneE114 -gneE112 -gneE110 -gneE109 -gneE74"/>
    </vehicle>
    <vehicle id="201" depart="101.84">
        <route edges="gneE63"/>
    </vehicle>
    <vehicle id="202" depart="102.35">
        <route edges="-gneE90 gneE91 gneE92 -gneE87"/>
    </vehicle>
    <vehicle id="203" depart="102.86">
        <route edges="-gneE92 -gneE91 gneE90"/>
    </vehicle>
    <vehicle id="204" depart="103.36">
        <route edges="-gneE119 -gneE118 -gneE116 -gneE114 -gneE112 -gneE110 -gneE109 -gneE74 -gneE84"/>
    </vehicle>
    <vehicle id="205" depart="103.87">
        <route edges="gneE72 gneE73 -gneE84 gneE97"/>
    </vehicle>
    <vehicle id="206" depart="104.38">
        <route edges="gneE73 gneE74 gneE109"/>
    </vehicle>
    <vehicle id="207" depart="104.88">
        <route edges="-gneE71 -gneE77 -gneE115"/>
    </vehicle>
    <vehicle id="208" depart="105.39">
        <route edges="gneE73 -gneE84 gneE97 gneE99"/>
    </vehicle>
    <vehicle id="209" depart="105.90">
        <route edges="gneE60"/>
    </vehicle>
    <vehicle id="210" depart="106.40">
        <route edges="-gneE115 -gneE114 -gneE112 -gneE110 -gneE109 -gneE74"/>
    </vehicle>
    <vehicle id="211" depart="106.91">
        <route edges="-gneE77 -gneE115 -gneE114 -gneE112 -gneE110 -gneE109 -gneE74 -gneE73 gneE85"/>
    </vehicle>
    <vehicle id="212" depart="107.42">
        <route edges="gneE77"/>
    </vehicle>
    <vehicle id="213" depart="107.92">
        <route edges="-gneE115 gneE116 gneE118 gneE119 gneE65 gneE66 gneE67 gneE68 -gneE123"/>
    </vehicle>
    <vehicle id="214" depart="108.43">
        <route edges="gneE70 gneE71"/>
    </vehicle>
    <vehicle id="215" depart="108.94">
        <route edges="gneE100 -gneE103"/>
    </vehicle>
    <vehicle id="216" depart="109.44">
        <route edges="-gneE77 -gneE115 -gneE114 -gneE112 -gneE110 -gneE109 -gneE74 -gneE84 gneE97"/>
    </vehicle>
    <vehicle id="217" depart="109.95">
        <route edges="gneE84 gneE74 gneE109 gneE110 gneE112 gneE114 gneE116 gneE118 gneE119"/>
    </vehicle>
    <vehicle id="218" depart="110.46">
        <route edges="-gneE95 gneE102 gneE104"/>
    </vehicle>
    <vehicle id="219" depart="110.96">
        <route edges="-gneE97 gneE84 gneE74 gneE109 -gneE132"/>
    </vehicle>
    <vehicle id="220" depart="111.47">
        <route edges="-gneE67 -gneE66 -gneE65 -gneE119 -gneE118 -gneE116 gneE115"/>
    </vehicle>
    <vehicle id="221" depart="111.98">
        <route edges="-gneE71 -gneE77 -gneE115"/>
    </vehicle>
    <vehicle id="222" depart="112.48">
        <route edges="gneE100 -gneE103"/>
    </vehicle>
    <vehicle id="223" depart="112.99">
        <route edges="-gneE103 gneE104 gneE106 gneE108 -gneE68 -gneE67 -gneE66 -gneE65 -gneE119"/>
    </vehicle>
    <vehicle id="224" depart="113.50">
        <route edges="-gneE93 gneE86 gneE72"/>
    </vehicle>
    <vehicle id="225" depart="114.00">
        <route edges="-gneE81"/>
    </vehicle>
    <vehicle id="226" depart="114.51">
        <route edges="gneE89 -gneE107"/>
    </vehicle>
    <vehicle id="227" depart="115.02">
        <route edges="gneE62 -gneE115 gneE116 gneE118 gneE119 gneE65 gneE66 gneE67 gneE68 -gneE123"/>
    </vehicle>
    <vehicle id="228" depart="115.52">
        <route edges="-gneE99 -gneE97 gneE84 gneE74 gneE109 gneE110 gneE112 gneE114 gneE116"/>
    </vehicle>
    <vehicle id="229" depart="116.03">
        <route edges="-gneE95 -gneE93 gneE86 -gneE76"/>
    </vehicle>
    <vehicle id="230" depart="116.54">
        <route edges="gneE77 -gneE70"/>
    </vehicle>
    <vehicle id="231" depart="117.04">
        <route edges="-gneE79 gneE67 gneE68 -gneE124"/>
    </vehicle>
    <vehicle id="232" depart="117.55">
        <route edges="-gneE68"/>
    </vehicle>
    <vehicle id="233" depart="118.06">
        <route edges="-gneE103 gneE104 gneE106"/>
    </vehicle>
    <vehicle id="234" depart="118.56">
        <route edges="-gneE61"/>
    </vehicle>
    <vehicle id="235" depart="119.07">
        <route edges="-gneE68"/>
    </vehicle>
    <vehicle id="236" depart="119.58">
        <route edges="-gneE70 -gneE78 gneE64"/>
    </vehicle>
    <vehicle id="237" depart="120.08">
        <route edges="gneE106 gneE108 -gneE68 -gneE67 -gneE66 -gneE65 -gneE119 -gneE118 -gneE116"/>
    </vehicle>
    <vehicle id="238" depart="120.59">
        <route edges="-gneE61 gneE75 gneE85"/>
    </vehicle>
    <vehicle id="239" depart="121.10">
        <route edges="-gneE114 -gneE112 -gneE110 -gneE109 -gneE74 -gneE73"/>
    </vehicle>
    <vehicle id="240" depart="121.60">
        <route edges="-gneE89"/>
    </vehicle>
    <vehicle id="241" depart="122.11">
        <route edges="-gneE68"/>
    </vehicle>
    <vehicle id="242" depart="122.62">
        <route edges="-gneE109 -gneE74"/>
    </vehicle>
    <vehicle id="243" depart="123.12">
        <route edges="gneE102 gneE104 gneE106 gneE108 -gneE68 -gneE67 gneE79 gneE89"/>
    </vehicle>
    <vehicle id="244" depart="123.63">
        <route edges="gneE116"/>