<?xml version="1.0" encoding="UTF-8"?>
<!-- generated on 2022-05-03 10:39:36.415985 by tripsFromRoutes.py v1_10_0+0000-83496a5972
  options: -i sampledRoutes.rou.xml -r basicRoutes.rou.xml -t simpleTrips.trips.xml -o ../ltn/ltnTrips.rou.xml
-->
<routes>
        <trip id="0" depart="0.00" fromJunction="gneJ97" toJunction="gneJ76"/>
        <trip id="1" depart="0.66" fromJunction="gneJ84" toJunction="gneJ125"/>
        <trip id="2" depart="1.32" fromJunction="gneJ83" toJunction="gneJ139"/>
        <trip id="3" depart="1.98" fromJunction="gneJ89" toJunction="gneJ131"/>
        <trip id="4" depart="2.63" fromJunction="gneJ100" toJunction="gneJ138"/>
        <trip id="5" depart="3.29" fromJunction="gneJ104" toJunction="gneJ135"/>
        <trip id="6" depart="3.95" fromJunction="gneJ103" toJunction="gneJ123"/>
        <trip id="7" depart="4.61" fromJunction="gneJ95" toJunction="gneJ114"/>
        <trip id="8" depart="5.27" fromJunction="gneJ106" toJunction="gneJ123"/>
        <trip id="9" depart="5.93" fromJunction="gneJ81" toJunction="gneJ138"/>
        <trip id="10" depart="6.59" fromJunction="gneJ88" toJunction="gneJ97"/>
        <trip id="11" depart="7.24" fromJunction="gneJ101" toJunction="gneJ133"/>
        <trip id="12" depart="7.90" fromJunction="gneJ106" toJunction="gneJ128"/>
        <trip id="13" depart="8.56" fromJunction="gneJ75" toJunction="gneJ132"/>
        <trip id="14" depart="9.22" fromJunction="gneJ94" toJunction="gneJ132"/>
        <trip id="15" depart="9.88" fromJunction="gneJ94" toJunction="gneJ129"/>
        <trip id="16" depart="10.54" fromJunction="gneJ107" toJunction="gneJ138"/>
        <trip id="17" depart="11.20" fromJunction="gneJ110" toJunction="gneJ137"/>
        <trip id="18" depart="11.86" fromJunction="gneJ81" toJunction="gneJ102"/>
        <trip id="19" depart="12.51" fromJunction="gneJ85" toJunction="gneJ117"/>
        <trip id="20" depart="13.17" fromJunction="gneJ86" toJunction="gneJ97"/>
        <trip id="21" depart="13.83" fromJunction="gneJ99" toJunction="gneJ139"/>
        <trip id="22" depart="14.49" fromJunction="gneJ95" toJunction="gneJ140"/>
        <trip id="23" depart="15.15" fromJunction="gneJ108" toJunction="gneJ76"/>
        <trip id="24" depart="15.81" fromJunction="gneJ87" toJunction="gneJ110"/>
        <trip id="25" depart="16.47" fromJunction="gneJ108" toJunction="gneJ76"/>
        <trip id="26" depart="17.12" fromJunction="gneJ105" toJunction="gneJ129"/>
        <trip id="27" depart="17.78" fromJunction="gneJ94" toJunction="gneJ122"/>
        <trip id="28" depart="18.44" fromJunction="gneJ94" toJunction="gneJ82"/>
        <trip id="29" depart="19.10" fromJunction="gneJ104" toJunction="gneJ141"/>
        <trip id="30" depart="19.76" fromJunction="gneJ97" toJunction="gneJ107"/>
        <trip id="31" depart="20.42" fromJunction="gneJ86" toJunction="gneJ130"/>
        <trip id="32" depart="21.08" fromJunction="gneJ91" toJunction="gneJ117"/>
        <trip id="33" depart="21.73" fromJunction="gneJ101" toJunction="gneJ137"/>
        <trip id="34" depart="22.39" fromJunction="gneJ96" toJunction="gneJ137"/>
        <trip id="35" depart="23.05" fromJunction="gneJ93" toJunction="gneJ124"/>
        <trip id="36" depart="23.71" fromJunction="gneJ90" toJunction="gneJ115"/>
        <trip id="37" depart="24.37" fromJunction="gneJ110" toJunction="gneJ130"/>
        <trip id="38" depart="25.03" fromJunction="gneJ99" toJunction="gneJ98"/>
        <trip id="39" depart="25.69" fromJunction="gneJ106" toJunction="gneJ131"/>
        <trip id="40" depart="26.34" fromJunction="gneJ86" toJunction="gneJ135"/>
        <trip id="41" depart="27.00" fromJunction="gneJ93" toJunction="gneJ114"/>
        <trip id="42" depart="27.66" fromJunction="gneJ81" toJunction="gneJ105"/>
        <trip id="43" depart="28.32" fromJunction="gneJ105" toJunction="gneJ114"/>
        <trip id="44" depart="28.98" fromJunction="gneJ94" toJunction="gneJ137"/>
        <trip id="45" depart="29.64" fromJunction="gneJ88" toJunction="gneJ139"/>
        <trip id="46" depart="30.30" fromJunction="gneJ75" toJunction="gneJ135"/>
        <trip id="47" depart="30.95" fromJunction="gneJ94" toJunction="gneJ137"/>
        <trip id="48" depart="31.61" fromJunction="gneJ104" toJunction="gneJ135"/>
        <trip id="49" depart="32.27" fromJunction="gneJ102" toJunction="gneJ130"/>
        <trip id="50" depart="32.93" fromJunction="gneJ106" toJunction="gneJ75"/>
        <trip id="51" depart="33.59" fromJunction="gneJ106" toJunction="gneJ137"/>
        <trip id="52" depart="34.25" fromJunction="gneJ97" toJunction="gneJ87"/>
        <trip id="53" depart="34.91" fromJunction="gneJ104" toJunction="gneJ133"/>
        <trip id="54" depart="35.57" fromJunction="gneJ99" toJunction="gneJ139"/>
        <trip id="55" depart="36.22" fromJunction="gneJ84" toJunction="gneJ127"/>
        <trip id="56" depart="36.88" fromJunction="gneJ84" toJunction="gneJ76"/>
        <trip id="57" depart="37.54" fromJunction="gneJ107" toJunction="gneJ136"/>
        <trip id="58" depart="38.20" fromJunction="gneJ103" toJunction="gneJ136"/>
        <trip id="59" depart="38.86" fromJunction="gneJ102" toJunction="gneJ138"/>
        <trip id="60" depart="39.52" fromJunction="gneJ101" toJunction="gneJ90"/>
        <trip id="61" depart="40.18" fromJunction="gneJ80" toJunction="gneJ115"/>
        <trip id="62" depart="40.83" fromJunction="gneJ110" toJunction="gneJ140"/>
        <trip id="63" depart="41.49" fromJunction="gneJ75" toJunction="gneJ92"/>
        <trip id="64" depart="42.15" fromJunction="gneJ110" toJunction="gneJ133"/>
        <trip id="65" depart="42.81" fromJunction="gneJ110" toJunction="gneJ131"/>
        <trip id="66" depart="43.47" fromJunction="gneJ104" toJunction="gneJ122"/>
        <trip id="67" depart="44.13" fromJunction="gneJ83" toJunction="gneJ91"/>
        <trip id="68" depart="44.79" fromJunction="gneJ79" toJunction="gneJ133"/>
        <trip id="69" depart="45.44" fromJunction="gneJ79" toJunction="gneJ143"/>
        <trip id="70" depart="46.10" fromJunction="gneJ80" toJunction="gneJ79"/>
        <trip id="71" depart="46.76" fromJunction="gneJ87" toJunction="gneJ128"/>
        <trip id="72" depart="47.42" fromJunction="gneJ82" toJunction="gneJ131"/>
        <trip id="73" depart="48.08" fromJunction="gneJ101" toJunction="gneJ114"/>
        <trip id="74" depart="48.74" fromJunction="gneJ97" toJunction="gneJ135"/>
        <trip id="75" depart="49.40" fromJunction="gneJ75" toJunction="gneJ139"/>
        <trip id="76" depart="50.05" fromJunction="gneJ84" toJunction="gneJ125"/>
        <trip id="77" depart="50.71" fromJunction="gneJ80" toJunction="gneJ88"/>
        <trip id="78" depart="51.37" fromJunction="gneJ95" toJunction="gneJ116"/>
        <trip id="79" depart="52.03" fromJunction="gneJ75" toJunction="gneJ139"/>
        <trip id="80" depart="52.69" fromJunction="gneJ85" toJunction="gneJ138"/>
        <trip id="81" depart="53.35" fromJunction="gneJ85" toJunction="gneJ143"/>
        <trip id="82" depart="54.01" fromJunction="gneJ104" toJunction="gneJ136"/>
        <trip id="83" depart="54.67" fromJunction="gneJ110" toJunction="gneJ81"/>
        <trip id="84" depart="55.32" fromJunction="gneJ80" toJunction="gneJ76"/>
        <trip id="85" depart="55.98" fromJunction="gneJ107" toJunction="gneJ143"/>
        <trip id="86" depart="56.64" fromJunction="gneJ81" toJunction="gneJ77"/>
        <trip id="87" depart="57.30" fromJunction="gneJ103" toJunction="gneJ141"/>
        <trip id="88" depart="57.96" fromJunction="gneJ75" toJunction="gneJ132"/>
        <trip id="89" depart="58.62" fromJunction="gneJ80" toJunction="gneJ140"/>
        <trip id="90" depart="59.28" fromJunction="gneJ84" toJunction="gneJ115"/>
        <trip id="91" depart="59.93" fromJunction="gneJ80" toJunction="gneJ135"/>
        <trip id="92" depart="60.59" fromJunction="gneJ105" toJunction="gneJ141"/>
        <trip id="93" depart="61.25" fromJunction="gneJ103" toJunction="gneJ127"/>
        <trip id="94" depart="61.91" fromJunction="gneJ94" toJunction="gneJ84"/>
        <trip id="95" depart="62.57" fromJunction="gneJ83" toJunction="gneJ117"/>
        <trip id="96" depart="63.23" fromJunction="gneJ98" toJunction="gneJ93"/>
        <trip id="97" depart="63.89" fromJunction="gneJ99" toJunction="gneJ125"/>
        <trip id="98" depart="64.54" fromJunction="gneJ86" toJunction="gneJ141"/>
        <trip id="99" depart="65.20" fromJunction="gneJ96" toJunction="gneJ133"/>
        <trip id="100" depart="65.86" fromJunction="gneJ91" toJunction="gneJ92"/>
        <trip id="101" depart="66.52" fromJunction="gneJ80" toJunction="gneJ91"/>
        <trip id="102" depart="67.18" fromJunction="gneJ110" toJunction="gneJ130"/>
        <trip id="103" depart="67.84" fromJunction="gneJ83" toJunction="gneJ116"/>
        <trip id="104" depart="68.50" fromJunction="gneJ106" toJunction="gneJ80"/>
        <trip id="105" depart="69.15" fromJunction="gneJ82" toJunction="gneJ132"/>
        <trip id="106" depart="69.81" fromJunction="gneJ110" toJunction="gneJ130"/>
        <trip id="107" depart="70.47" fromJunction="gneJ91" toJunction="gneJ110"/>
        <trip id="108" depart="71.13" fromJunction="gneJ96" toJunction="gneJ125"/>
        <trip id="109" depart="71.79" fromJunction="gneJ110" toJunction="gneJ127"/>
        <trip id="110" depart="72.45" fromJunction="gneJ87" toJunction="gneJ106"/>
        <trip id="111" depart="73.11" fromJunction="gneJ100" toJunction="gneJ130"/>
        <trip id="112" depart="73.77" fromJunction="gneJ85" toJunction="gneJ108"/>
        <trip id="113" depart="74.42" fromJunction="gneJ80" toJunction="gneJ135"/>
        <trip id="114" depart="75.08" fromJunction="gneJ94" toJunction="gneJ114"/>
        <trip id="115" depart="75.74" fromJunction="gneJ88" toJunction="gneJ136"/>
        <trip id="116" depart="76.40" fromJunction="gneJ89" toJunction="gneJ98"/>
        <trip id="117" depart="77.06" fromJunction="gneJ89" toJunction="gneJ84"/>
        <trip id="118" depart="77.72" fromJunction="gneJ83" toJunction="gneJ132"/>
        <trip id="119" depart="78.38" fromJunction="gneJ89" toJunction="gneJ137"/>
        <trip id="120" depart="79.03" fromJunction="gneJ94" toJunction="gneJ135"/>
        <trip id="121" depart="79.69" fromJunction="gneJ81" toJunction="gneJ75"/>
        <trip id="122" depart="80.35" fromJunction="gneJ97" toJunction="gneJ136"/>
        <trip id="123" depart="81.01" fromJunction="gneJ76" toJunction="gneJ128"/>
        <trip id="124" depart="81.67" fromJunction="gneJ75" toJunction="gneJ139"/>
        <trip id="125" depart="82.33" fromJunction="gneJ86" toJunction="gneJ79"/>
        <trip id="126" depart="82.99" fromJunction="gneJ105" toJunction="gneJ114"/>
        <trip id="127" depart="83.64" fromJunction="gneJ107" toJunction="gneJ80"/>
        <trip id="128" depart="84.30" fromJunction="gneJ100" toJunction="gneJ92"/>
        <trip id="129" depart="84.96" fromJunction="gneJ93" toJunction="gneJ77"/>
        <trip id="130" depart="85.62" fromJunction="gneJ104" toJunction="gneJ103"/>
        <trip id="131" depart="86.28" fromJunction="gneJ88" toJunction="gneJ122"/>
        <trip id="132" depart="86.94" fromJunction="gneJ99" toJunction="gneJ89"/>
        <trip id="133" depart="87.60" fromJunction="gneJ86" toJunction="gneJ123"/>
        <trip id="134" depart="88.25" fromJunction="gneJ110" toJunction="gneJ130"/>
        <trip id="135" depart="88.91" fromJunction="gneJ85" toJunction="gneJ124"/>
        <trip id="136" depart="89.57" fromJunction="gneJ80" toJunction="gneJ132"/>
        <trip id="137" depart="90.23" fromJunction="gneJ83" toJunction="gneJ122"/>
        <trip id="138" depart="90.89" fromJunction="gneJ110" toJunction="gneJ81"/>
        <trip id="139" depart="91.55" fromJunction="gneJ87" toJunction="gneJ125"/>
        <trip id="140" depart="92.21" fromJunction="gneJ83" toJunction="gneJ102"/>
        <trip id="141" depart="92.86" fromJunction="gneJ100" toJunction="gneJ92"/>
        <trip id="142" depart="93.52" fromJunction="gneJ99" toJunction="gneJ139"/>
        <trip id="143" depart="94.18" fromJunction="gneJ75" toJunction="gneJ92"/>
        <trip id="144" depart="94.84" fromJunction="gneJ93" toJunction="gneJ139"/>
        <trip id="145" depart="95.50" fromJunction="gneJ104" toJunction="gneJ89"/>
        <trip id="146" depart="96.16" fromJunction="gneJ86" toJunction="gneJ115"/>
        <trip id="147" depart="96.82" fromJunction="gneJ80" toJunction="gneJ88"/>
        <trip id="148" depart="97.48" fromJunction="gneJ85" toJunction="gneJ101"/>
        <trip id="149" depart="98.13" fromJunction="gneJ79" toJunction="gneJ93"/>
        <trip id="150" depart="98.79" fromJunction="gneJ83" toJunction="gneJ79"/>
        <trip id="151" depart="99.45" fromJunction="gneJ106" toJunction="gneJ141"/>
        <trip id="152" depart="100.11" fromJunction="gneJ79" toJunction="gneJ141"/>
        <trip id="153" depart="100.77" fromJunction="gneJ82" toJunction="gneJ114"/>
        <trip id="154" depart="101.43" fromJunction="gneJ81" toJunction="gneJ106"/>
        <trip id="155" depart="102.09" fromJunction="gneJ77" toJunction="gneJ106"/>
        <trip id="156" depart="102.74" fromJunction="gneJ89" toJunction="gneJ106"/>
        <trip id="157" depart="103.40" fromJunction="gneJ81" toJunction="gneJ92"/>
        <trip id="158" depart="104.06" fromJunction="gneJ87" toJunction="gneJ122"/>
        <trip id="159" depart="104.72" fromJunction="gneJ102" toJunction="gneJ138"/>
        <trip id="160" depart="105.38" fromJunction="gneJ82" toJunction="gneJ117"/>
        <trip id="161" depart="106.04" fromJunction="gneJ81" toJunction="gneJ106"/>
        <trip id="162" depart="106.70" fromJunction="gneJ105" toJunction="gneJ136"/>
        <trip id="163" depart="107.35" fromJunction="gneJ83" toJunction="gneJ76"/>
        <trip id="164" depart="108.01" fromJunction="gneJ93" toJunction="gneJ98"/>
        <trip id="165" depart="108.67" fromJunction="gneJ80" toJunction="gneJ140"/>
        <trip id="166" depart="109.33" fromJunction="gneJ89" toJunction="gneJ98"/>
        <trip id="167" depart="109.99" fromJunction="gneJ83" toJunction="gneJ125"/>
        <trip id="168" depart="110.65" fromJunction="gneJ101" toJunction="gneJ95"/>
        <trip id="169" depart="111.31" fromJunction="gneJ97" toJunction="gneJ123"/>
        <trip id="170" depart="111.96" fromJunction="gneJ106" toJunction="gneJ135"/>
        <trip id="171" depart="112.62" fromJunction="gneJ83" toJunction="gneJ122"/>
        <trip id="172" depart="113.28" fromJunction="gneJ83" toJunction="gneJ102"/>
        <trip id="173" depart="113.94" fromJunction="gneJ80" toJunction="gneJ117"/>
        <trip id="174" depart="114.60" fromJunction="gneJ105" toJunction="gneJ97"/>
        <trip id="175" depart="115.26" fromJunction="gneJ107" toJunction="gneJ128"/>
        <trip id="176" depart="115.92" fromJunction="gneJ77" toJunction="gneJ143"/>
        <trip id="177" depart="116.58" fromJunction="gneJ87" toJunction="gneJ114"/>
        <trip id="178" depart="117.23" fromJunction="gneJ103" toJunction="gneJ131"/>
        <trip id="179" depart="117.89" fromJunction="gneJ96" toJunction="gneJ77"/>
        <trip id="180" depart="118.55" fromJunction="gneJ98" toJunction="gneJ114"/>
        <trip id="181" depart="119.21" fromJunction="gneJ88" toJunction="gneJ133"/>
        <trip id="182" depart="119.87" fromJunction="gneJ89" toJunction="gneJ99"/>
        <trip id="183" depart="120.53" fromJunction="gneJ89" toJunction="gneJ98"/>
        <trip id="184" depart="121.19" fromJunction="gneJ95" toJunction="gneJ125"/>
        <trip id="185" depart="121.84" fromJunction="gneJ99" toJunction="gneJ140"/>
        <trip id="186" depart="122.50" fromJunction="gneJ83" toJunction="gneJ106"/>
        <trip id="187" depart="123.16" fromJunction="gneJ104" toJunction="gneJ80"/>
        <trip id="188" depart="123.82" fromJunction="gneJ98" toJunction="gneJ128"/>
        <trip id="189" depart="124.48" fromJunction="gneJ110" toJunction="gneJ114"/>
        <trip id="190" depart="125.14" fromJunction="gneJ105" toJunction="gneJ140"/>
        <trip id="191" depart="125.80" fromJunction="gneJ94" toJunction="gneJ122"/>
        <trip id="192" depart="126.45" fromJunction="gneJ87" toJunction="gneJ139"/>
        <trip id="193" depart="127.11" fromJunction="gneJ90" toJunction="gneJ138"/>
        <trip id="194" depart="127.77" fromJunction="gneJ83" toJunction="gneJ76"/>
        <trip id="195" depart="128.43" fromJunction="gneJ95" toJunction="gneJ94"/>
        <trip id="196" depart="129.09" fromJunction="gneJ82" toJunction="gneJ133"/>
        <trip id="197" depart="129.75" fromJunction="gneJ102" toJunction="gneJ136"/>
        <trip id="198" depart="130.41" fromJunction="gneJ95" toJunction="gneJ116"/>
        <trip id="199" depart="131.06" fromJunction="gneJ101" toJunction="gneJ92"/>
        <trip id="200" depart="131.72" fromJunction="gneJ92" toJunction="gneJ125"/>
        <trip id="201" depart="132.38" fromJunction="gneJ91" toJunction="gneJ110"/>
        <trip id="202" depart="133.04" fromJunction="gneJ98" toJunction="gneJ80"/>
        <trip id="203" depart="133.70" fromJunction="gneJ79" toJunction="gneJ134"/>
        <trip id="204" depart="134.36" fromJunction="gneJ105" toJunction="gneJ114"/>
        <trip id="205" depart="135.02" fromJunction="gneJ106" toJunction="gneJ134"/>
        <trip id="206" depart="135.68" fromJunction="gneJ100" toJunction="gneJ89"/>
        <trip id="207" depart="136.33" fromJunction="gneJ99" toJunction="gneJ128"/>
        <trip id="208" depart="136.99" fromJunction="gneJ93" toJunction="gneJ132"/>
        <trip id="209" depart="137.65" fromJunction="gneJ101" toJunction="gneJ130"/>
        <trip id="210" depart="138.31" fromJunction="gneJ88" toJunction="gneJ137"/>
        <trip id="211" depart="138.97" fromJunction="gneJ103" toJunction="gneJ131"/>
        <trip id="212" depart="139.63" fromJunction="gneJ104" toJunction="gneJ136"/>
        <trip id="213" depart="140.29" fromJunction="gneJ75" toJunction="gneJ140"/>
        <trip id="214" depart="140.94" fromJunction="gneJ98" toJunction="gneJ107"/>
        <trip id="215" depart="141.60" fromJunction="gneJ75" toJunction="gneJ114"/>
        <trip id="216" depart="142.26" fromJunction="gneJ75" toJunction="gneJ124"/>
        <trip id="217" depart="142.92" fromJunction="gneJ75" toJunction="gneJ124"/>
        <trip id="218" depart="143.58" fromJunction="gneJ79" toJunction="gneJ136"/>
        <trip id="219" depart="144.24" fromJunction="gneJ77" toJunction="gneJ143"/>
        <trip id="220" depart="144.90" fromJunction="gneJ82" toJunction="gneJ117"/>
        <trip id="221" depart="145.55" fromJunction="gneJ100" toJunction="gneJ133"/>
        <trip id="222" depart="146.21" fromJunction="gneJ97" toJunction="gneJ124"/>
        <trip id="223" depart="146.87" fromJunction="gneJ84" toJunction="gneJ133"/>
        <trip id="224" depart="147.53" fromJunction="gneJ94" toJunction="gneJ131"/>
        <trip id="225" depart="148.19" fromJunction="gneJ98" toJunction="gneJ78"/>
        <trip id="226" depart="148.85" fromJunction="gneJ83" toJunction="gneJ122"/>
        <trip id="227" depart="149.51" fromJunction="gneJ86" toJunction="gneJ100"/>
        <trip id="228" depart="150.16" fromJunction="gneJ110" toJunction="gneJ133"/>
        <trip id="229" depart="150.82" fromJunction="gneJ100" toJunction="gneJ143"/>
        <trip id="230" depart="151.48" fromJunction="gneJ86" toJunction="gneJ134"/>
        <trip id="231" depart="152.14" fromJunction="gneJ101" toJunction="gneJ116"/>
        <trip id="232" depart="152.80" fromJunction="gneJ100" toJunction="gneJ133"/>
        <trip id="233" depart="153.46" fromJunction="gneJ78" toJunction="gneJ115"/>
        <trip id="234" depart="154.12" fromJunction="gneJ93" toJunction="gneJ100"/>
        <trip id="235" depart="154.77" fromJunction="gneJ99" toJunction="gneJ129"/>
        <trip id="236" depart="155.43" fromJunction="gneJ110" toJunction="gneJ131"/>
        <trip id="237" depart="156.09" fromJunction="gneJ110" toJunction="gneJ131"/>
        <trip id="238" depart="156.75" fromJunction="gneJ96" toJunction="gneJ132"/>
        <trip id="239" depart="157.41" fromJunction="gneJ101" toJunction="gneJ92"/>
        <trip id="240" depart="158.07" fromJunction="gneJ82" toJunction="gneJ139"/>
        <trip id="241" depart="158.73" fromJunction="gneJ86" toJunction="gneJ115"/>
        <trip id="242" depart="159.39" fromJunction="gneJ75" toJunction="gneJ139"/>
        <trip id="243" depart="160.04" fromJunction="gneJ106" toJunction="gneJ117"/>
        <trip id="244" depart="160.70" fromJunction="gneJ89" toJunction="gneJ86"/>
        <trip id="245" depart="161.36" fromJunction="gneJ90" toJunction="gneJ100"/>
        <trip id="246" depart="162.02" fromJunction="gneJ97" toJunction="gneJ95"/>
        <trip id="247" depart="162.68" fromJunction="gneJ82" toJunction="gneJ132"/>
        <trip id="248" depart="163.34" fromJunction="gneJ83" toJunction="gneJ117"/>
        <trip id="249" depart="164.00" fromJunction="gneJ93" toJunction="gneJ114"/>
        <trip id="250" depart="164.65" fromJunction="gneJ75" toJunction="gneJ137"/>
        <trip id="251" depart="165.31" fromJunction="gneJ98" toJunction="gneJ93"/>
        <trip id="252" depart="165.97" fromJunction="gneJ98" toJunction="gneJ124"/>
        <trip id="253" depart="166.63" fromJunction="gneJ102" toJunction="gneJ135"/>
        <trip id="254" depart="167.29" fromJunction="gneJ105" toJunction="gneJ97"/>
        <trip id="255" depart="167.95" fromJunction="gneJ88" toJunction="gneJ123"/>
        <trip id="256" depart="168.61" fromJunction="gneJ104" toJunction="gneJ89"/>
        <trip id="257" depart="169.26" fromJunction="gneJ110" toJunction="gneJ109"/>
        <trip id="258" depart="169.92" fromJunction="gneJ78" toJunction="gneJ115"/>
        <trip id="259" depart="170.58" fromJunction="gneJ83" toJunction="gneJ91"/>
        <trip id="260" depart="171.24" fromJunction="gneJ96" toJunction="gneJ143"/>
        <trip id="261" depart="171.90" fromJunction="gneJ85" toJunction="gneJ125"/>
        <trip id="262" depart="172.56" fromJunction="gneJ78" toJunction="gneJ143"/>
        <trip id="263" depart="173.22" fromJunction="gneJ104" toJunction="gneJ135"/>
        <trip id="264" depart="173.87" fromJunction="gneJ89" toJunction="gneJ131"/>
        <trip id="265" depart="174.53" fromJunction="gneJ94" toJunction="gneJ115"/>
        <trip id="266" depart="175.19" fromJunction="gneJ84" toJunction="gneJ80"/>
        <trip id="267" depart="175.85" fromJunction="gneJ94" toJunction="gneJ123"/>
        <trip id="268" depart="176.51" fromJunction="gneJ88" toJunction="gneJ78"/>
        <trip id="269" depart="177.17" fromJunction="gneJ93" toJunction="gneJ98"/>
        <trip id="270" depart="177.83" fromJunction="gneJ94" toJunction="gneJ124"/>
        <trip id="271" depart="178.49" fromJunction="gneJ97" toJunction="gneJ140"/>
        <trip id="272" depart="179.14" fromJunction="gneJ84" toJunction="gneJ134"/>
        <trip id="273" depart="179.80" fromJunction="gneJ106" toJunction="gneJ122"/>
        <trip id="274" depart="180.46" fromJunction="gneJ109" toJunction="gneJ116"/>
        <trip id="275" depart="181.12" fromJunction="gneJ106" toJunction="gneJ127"/>
        <trip id="276" depart="181.78" fromJunction="gneJ110" toJunction="gneJ114"/>
        <trip id="277" depart="182.44" fromJunction="gneJ81" toJunction="gneJ76"/>
        <trip id="278" depart="183.10" fromJunction="gneJ101" toJunction="gneJ92"/>
        <trip id="279" depart="183.75" fromJunction="gneJ102" toJunction="gneJ116"/>
        <trip id="280" depart="184.41" fromJunction="gneJ75" toJunction="gneJ136"/>
        <trip id="281" depart="185.07" fromJunction="gneJ110" toJunction="gneJ81"/>
        <trip id="282" depart="185.73" fromJunction="gneJ105" toJunction="gneJ114"/>
        <trip id="283" depart="186.39" fromJunction="gneJ85" toJunction="gneJ110"/>
        <trip id="284" depart="187.05" fromJunction="gneJ85" toJunction="gneJ116"/>
        <trip id="285" depart="187.71" fromJunction="gneJ107" toJunction="gneJ129"/>
        <trip id="286" depart="188.36" fromJunction="gneJ110" toJunction="gneJ97"/>
        <trip id="287" depart="189.02" fromJunction="gneJ100" toJunction="gneJ130"/>
        <trip id="288" depart="189.68" fromJunction="gneJ98" toJunction="gneJ129"/>
        <trip id="289" depart="190.34" fromJunction="gneJ105" toJunction="gneJ117"/>
        <trip id="290" depart="191.00" fromJunction="gneJ83" toJunction="gneJ127"/>
        <trip id="291" depart="191.66" fromJunction="gneJ79" toJunction="gneJ125"/>
        <trip id="292" depart="192.32" fromJunction="gneJ97" toJunction="gneJ128"/>
        <trip id="293" depart="192.97" fromJunction="gneJ100" toJunction="gneJ92"/>
        <trip id="294" depart="193.63" fromJunction="gneJ88" toJunction="gneJ137"/>
        <trip id="295" depart="194.29" fromJunction="gneJ78" toJunction="gneJ137"/>
        <trip id="296" depart="194.95" fromJunction="gneJ88" toJunction="gneJ86"/>
        <trip id="297" depart="195.61" fromJunction="gneJ110" toJunction="gneJ97"/>
        <trip id="298" depart="196.27" fromJunction="gneJ93" toJunction="gneJ122"/>
        <trip id="299" depart="196.93" fromJunction="gneJ90" toJunction="gneJ122"/>
        <trip id="300" depart="197.59" fromJunction="gneJ92" toJunction="gneJ123"/>
        <trip id="301" depart="198.24" fromJunction="gneJ93" toJunction="gneJ122"/>
        <trip id="302" depart="198.90" fromJunction="gneJ110" toJunction="gneJ127"/>
        <trip id="303" depart="199.56" fromJunction="gneJ94" toJunction="gneJ107"/>
        <trip id="304" depart="200.22" fromJunction="gneJ103" toJunction="gneJ136"/>
        <trip id="305" depart="200.88" fromJunction="gneJ85" toJunction="gneJ138"/>
        <trip id="306" depart="201.54" fromJunction="gneJ77" toJunction="gneJ107"/>
        <trip id="307" depart="202.20" fromJunction="gneJ88" toJunction="gneJ96"/>
        <trip id="308" depart="202.85" fromJunction="gneJ77" toJunction="gneJ143"/>
        <trip id="309" depart="203.51" fromJunction="gneJ98" toJunction="gneJ124"/>
        <trip id="310" depart="204.17" fromJunction="gneJ102" toJunction="gneJ83"/>
        <trip id="311" depart="204.83" fromJunction="gneJ89" toJunction="gneJ98"/>
        <trip id="312" depart="205.49" fromJunction="gneJ100" toJunction="gneJ76"/>
        <trip id="313" depart="206.15" fromJunction="gneJ101" toJunction="gneJ125"/>
        <trip id="314" depart="206.81" fromJunction="gneJ102" toJunction="gneJ104"/>
        <trip id="315" depart="207.46" fromJunction="gneJ110" toJunction="gneJ104"/>
        <trip id="316" depart="208.12" fromJunction="gneJ98" toJunction="gneJ139"/>
        <trip id="317" depart="208.78" fromJunction="gneJ110" toJunction="gneJ130"/>
        <trip id="318" depart="209.44" fromJunction="gneJ102" toJunction="gneJ136"/>
        <trip id="319" depart="210.10" fromJunction="gneJ88" toJunction="gneJ122"/>
        <trip id="320" depart="210.76" fromJunction="gneJ104" toJunction="gneJ93"/>
        <trip id="321" depart="211.42" fromJunction="gneJ86" toJunction="gneJ114"/>
        <trip id="322" depart="212.07" fromJunction="gneJ81" toJunction="gneJ114"/>
        <trip id="323" depart="212.73" fromJunction="gneJ83" toJunction="gneJ133"/>
        <trip id="324" depart="213.39" fromJunction="gneJ83" toJunction="gneJ122"/>
        <trip id="325" depart="214.05" fromJunction="gneJ97" toJunction="gneJ116"/>
        <trip id="326" depart="214.71" fromJunction="gneJ93" toJunction="gneJ131"/>
        <trip id="327" depart="215.37" fromJunction="gneJ84" toJunction="gneJ134"/>
        <trip id="328" depart="216.03" fromJunction="gneJ79" toJunction="gneJ129"/>
        <trip id="329" depart="216.68" fromJunction="gneJ79" toJunction="gneJ117"/>
        <trip id="330" depart="217.34" fromJunction="gneJ84" toJunction="gneJ124"/>
        <trip id="331" depart="218.00" fromJunction="gneJ89" toJunction="gneJ92"/>
        <trip id="332" depart="218.66" fromJunction="gneJ97" toJunction="gneJ116"/>
        <trip id="333" depart="219.32" fromJunction="gneJ102" toJunction="gneJ136"/>
        <trip id="334" depart="219.98" fromJunction="gneJ81" toJunction="gneJ98"/>
        <trip id="335" depart="220.64" fromJunction="gneJ83" toJunction="gneJ79"/>
        <trip id="336" depart="221.30" fromJunction="gneJ86" toJunction="gneJ91"/>
        <trip id="337" depart="221.95" fromJunction="gneJ81" toJunction="gneJ130"/>
        <trip id="338" depart="222.61" fromJunction="gneJ99" toJunction="gneJ128"/>
        <trip id="339" depart="223.27" fromJunction="gneJ110" toJunction="gneJ81"/>
        <trip id="340" depart="223.93" fromJunction="gneJ99" toJunction="gneJ129"/>
        <trip id="341" depart="224.59" fromJunction="gneJ81" toJunction="gneJ130"/>
        <trip id="342" depart="225.25" fromJunction="gneJ87" toJunction="gneJ123"/>
        <trip id="343" depart="225.91" fromJunction="gneJ84" toJunction="gneJ80"/>
        <trip id="344" depart="226.56" fromJunction="gneJ94" toJunction="gneJ134"/>
        <trip id="345" depart="227.22" fromJunction="gneJ102" toJunction="gneJ103"/>
        <trip id="346" depart="227.88" fromJunction="gneJ84" toJunction="gneJ122"/>
        <trip id="347" depart="228.54" fromJunction="gneJ99" toJunction="gneJ135"/>
        <trip id="348" depart="229.20" fromJunction="gneJ89" toJunction="gneJ101"/>
        <trip id="349" depart="229.86" fromJunction="gneJ96" toJunction="gneJ85"/>
        <trip id="350" depart="230.52" fromJunction="gneJ82" toJunction="gneJ95"/>
        <trip id="351" depart="231.17" fromJunction="gneJ79" toJunction="gneJ133"/>
        <trip id="352" depart="231.83" fromJunction="gneJ103" toJunction="gneJ109"/>
        <trip id="353" depart="232.49" fromJunction="gneJ75" toJunction="gneJ140"/>
        <trip id="354" depart="233.15" fromJunction="gneJ107" toJunction="gneJ128"/>
        <trip id="355" depart="233.81" fromJunction="gneJ103" toJunction="gneJ143"/>
        <trip id="356" depart="234.47" fromJunction="gneJ78" toJunction="gneJ104"/>