<?xml version="1.0" encoding="UTF-8"?>
<!-- generated on 2022-05-09 19:29:23.132491 by tripsFromRoutes.py v1_10_0+0000-83496a5972
  options: -i sampledRoutes.rou.xml -r basicRoutes.rou.xml -t simpleTrips.trips.xml -o ../ltn/ltnTrips.rou.xml
-->
<routes>
        <trip id="0" depart="0.00" fromJunction="gneJ80" toJunction="gneJ123"/>
        <trip id="1" depart="0.73" fromJunction="gneJ83" toJunction="gneJ136"/>
        <trip id="2" depart="1.46" fromJunction="gneJ104" toJunction="gneJ134"/>
        <trip id="3" depart="2.19" fromJunction="gneJ89" toJunction="gneJ116"/>
        <trip id="4" depart="2.92" fromJunction="gneJ91" toJunction="gneJ123"/>
        <trip id="5" depart="3.65" fromJunction="gneJ83" toJunction="gneJ96"/>
        <trip id="6" depart="4.39" fromJunction="gneJ102" toJunction="gneJ123"/>
        <trip id="7" depart="5.12" fromJunction="gneJ104" toJunction="gneJ98"/>
        <trip id="8" depart="5.85" fromJunction="gneJ104" toJunction="gneJ129"/>
        <trip id="9" depart="6.58" fromJunction="gneJ81" toJunction="gneJ115"/>
        <trip id="10" depart="7.31" fromJunction="gneJ97" toJunction="gneJ75"/>
        <trip id="11" depart="8.04" fromJunction="gneJ98" toJunction="gneJ114"/>
        <trip id="12" depart="8.77" fromJunction="gneJ108" toJunction="gneJ87"/>
        <trip id="13" depart="9.50" fromJunction="gneJ110" toJunction="gneJ128"/>
        <trip id="14" depart="10.23" fromJunction="gneJ90" toJunction="gneJ139"/>
        <trip id="15" depart="10.96" fromJunction="gneJ101" toJunction="gneJ82"/>
        <trip id="16" depart="11.70" fromJunction="gneJ81" toJunction="gneJ127"/>
        <trip id="17" depart="12.43" fromJunction="gneJ96" toJunction="gneJ136"/>
        <trip id="18" depart="13.16" fromJunction="gneJ79" toJunction="gneJ136"/>
        <trip id="19" depart="13.89" fromJunction="gneJ78" toJunction="gneJ117"/>
        <trip id="20" depart="14.62" fromJunction="gneJ81" toJunction="gneJ91"/>
        <trip id="21" depart="15.35" fromJunction="gneJ110" toJunction="gneJ117"/>
        <trip id="22" depart="16.08" fromJunction="gneJ83" toJunction="gneJ137"/>
        <trip id="23" depart="16.81" fromJunction="gneJ88" toJunction="gneJ130"/>
        <trip id="24" depart="17.54" fromJunction="gneJ102" toJunction="gneJ96"/>
        <trip id="25" depart="18.27" fromJunction="gneJ84" toJunction="gneJ90"/>
        <trip id="26" depart="19.01" fromJunction="gneJ82" toJunction="gneJ136"/>
        <trip id="27" depart="19.74" fromJunction="gneJ102" toJunction="gneJ135"/>
        <trip id="28" depart="20.47" fromJunction="gneJ94" toJunction="gneJ95"/>
        <trip id="29" depart="21.20" fromJunction="gneJ91" toJunction="gneJ138"/>
        <trip id="30" depart="21.93" fromJunction="gneJ105" toJunction="gneJ91"/>
        <trip id="31" depart="22.66" fromJunction="gneJ98" toJunction="gneJ108"/>
        <trip id="32" depart="23.39" fromJunction="gneJ107" toJunction="gneJ136"/>
        <trip id="33" depart="24.12" fromJunction="gneJ109" toJunction="gneJ101"/>
        <trip id="34" depart="24.85" fromJunction="gneJ110" toJunction="gneJ131"/>
        <trip id="35" depart="25.58" fromJunction="gneJ94" toJunction="gneJ104"/>
        <trip id="36" depart="26.31" fromJunction="gneJ85" toJunction="gneJ143"/>
        <trip id="37" depart="27.05" fromJunction="gneJ82" toJunction="gneJ103"/>
        <trip id="38" depart="27.78" fromJunction="gneJ80" toJunction="gneJ141"/>
        <trip id="39" depart="28.51" fromJunction="gneJ108" toJunction="gneJ143"/>
        <trip id="40" depart="29.24" fromJunction="gneJ95" toJunction="gneJ123"/>
        <trip id="41" depart="29.97" fromJunction="gneJ98" toJunction="gneJ129"/>
        <trip id="42" depart="30.70" fromJunction="gneJ85" toJunction="gneJ141"/>
        <trip id="43" depart="31.43" fromJunction="gneJ102" toJunction="gneJ140"/>
        <trip id="44" depart="32.16" fromJunction="gneJ90" toJunction="gneJ81"/>
        <trip id="45" depart="32.89" fromJunction="gneJ86" toJunction="gneJ124"/>
        <trip id="46" depart="33.62" fromJunction="gneJ94" toJunction="gneJ102"/>
        <trip id="47" depart="34.36" fromJunction="gneJ94" toJunction="gneJ77"/>
        <trip id="48" depart="35.09" fromJunction="gneJ107" toJunction="gneJ132"/>
        <trip id="49" depart="35.82" fromJunction="gneJ105" toJunction="gneJ91"/>
        <trip id="50" depart="36.55" fromJunction="gneJ84" toJunction="gneJ129"/>
        <trip id="51" depart="37.28" fromJunction="gneJ102" toJunction="gneJ96"/>
        <trip id="52" depart="38.01" fromJunction="gneJ80" toJunction="gneJ108"/>
        <trip id="53" depart="38.74" fromJunction="gneJ100" toJunction="gneJ81"/>
        <trip id="54" depart="39.47" fromJunction="gneJ102" toJunction="gneJ130"/>
        <trip id="55" depart="40.20" fromJunction="gneJ108" toJunction="gneJ78"/>
        <trip id="56" depart="40.93" fromJunction="gneJ107" toJunction="gneJ136"/>
        <trip id="57" depart="41.66" fromJunction="gneJ93" toJunction="gneJ122"/>
        <trip id="58" depart="42.40" fromJunction="gneJ94" toJunction="gneJ93"/>
        <trip id="59" depart="43.13" fromJunction="gneJ87" toJunction="gneJ117"/>
        <trip id="60" depart="43.86" fromJunction="gneJ75" toJunction="gneJ77"/>
        <trip id="61" depart="44.59" fromJunction="gneJ101" toJunction="gneJ96"/>
        <trip id="62" depart="45.32" fromJunction="gneJ99" toJunction="gneJ100"/>
        <trip id="63" depart="46.05" fromJunction="gneJ98" toJunction="gneJ93"/>
        <trip id="64" depart="46.78" fromJunction="gneJ80" toJunction="gneJ137"/>
        <trip id="65" depart="47.51" fromJunction="gneJ100" toJunction="gneJ141"/>
        <trip id="66" depart="48.24" fromJunction="gneJ81" toJunction="gneJ141"/>
        <trip id="67" depart="48.97" fromJunction="gneJ94" toJunction="gneJ122"/>
        <trip id="68" depart="49.71" fromJunction="gneJ103" toJunction="gneJ76"/>
        <trip id="69" depart="50.44" fromJunction="gneJ96" toJunction="gneJ86"/>
        <trip id="70" depart="51.17" fromJunction="gneJ109" toJunction="gneJ101"/>
        <trip id="71" depart="51.90" fromJunction="gneJ93" toJunction="gneJ108"/>
        <trip id="72" depart="52.63" fromJunction="gneJ103" toJunction="gneJ93"/>
        <trip id="73" depart="53.36" fromJunction="gneJ98" toJunction="gneJ124"/>
        <trip id="74" depart="54.09" fromJunction="gneJ105" toJunction="gneJ134"/>
        <trip id="75" depart="54.82" fromJunction="gneJ75" toJunction="gneJ78"/>
        <trip id="76" depart="55.55" fromJunction="gneJ110" toJunction="gneJ131"/>
        <trip id="77" depart="56.28" fromJunction="gneJ95" toJunction="gneJ138"/>
        <trip id="78" depart="57.02" fromJunction="gneJ81" toJunction="gneJ101"/>
        <trip id="79" depart="57.75" fromJunction="gneJ75" toJunction="gneJ85"/>
        <trip id="80" depart="58.48" fromJunction="gneJ102" toJunction="gneJ122"/>
        <trip id="81" depart="59.21" fromJunction="gneJ101" toJunction="gneJ137"/>
        <trip id="82" depart="59.94" fromJunction="gneJ75" toJunction="gneJ117"/>
        <trip id="83" depart="60.67" fromJunction="gneJ89" toJunction="gneJ115"/>
        <trip id="84" depart="61.40" fromJunction="gneJ87" toJunction="gneJ77"/>
        <trip id="85" depart="62.13" fromJunction="gneJ96" toJunction="gneJ130"/>
        <trip id="86" depart="62.86" fromJunction="gneJ88" toJunction="gneJ143"/>
        <trip id="87" depart="63.59" fromJunction="gneJ89" toJunction="gneJ88"/>
        <trip id="88" depart="64.32" fromJunction="gneJ84" toJunction="gneJ90"/>
        <trip id="89" depart="65.06" fromJunction="gneJ95" toJunction="gneJ138"/>
        <trip id="90" depart="65.79" fromJunction="gneJ93" toJunction="gneJ102"/>
        <trip id="91" depart="66.52" fromJunction="gneJ110" toJunction="gneJ132"/>
        <trip id="92" depart="67.25" fromJunction="gneJ97" toJunction="gneJ116"/>
        <trip id="93" depart="67.98" fromJunction="gneJ83" toJunction="gneJ116"/>
        <trip id="94" depart="68.71" fromJunction="gneJ91" toJunction="gneJ123"/>
        <trip id="95" depart="69.44" fromJunction="gneJ97" toJunction="gneJ139"/>
        <trip id="96" depart="70.17" fromJunction="gneJ103" toJunction="gneJ82"/>
        <trip id="97" depart="70.90" fromJunction="gneJ81" toJunction="gneJ125"/>
        <trip id="98" depart="71.63" fromJunction="gneJ100" toJunction="gneJ115"/>
        <trip id="99" depart="72.37" fromJunction="gneJ80" toJunction="gneJ102"/>
        <trip id="100" depart="73.10" fromJunction="gneJ88" toJunction="gneJ96"/>
        <trip id="101" depart="73.83" fromJunction="gneJ102" toJunction="gneJ110"/>
        <trip id="102" depart="74.56" fromJunction="gneJ82" toJunction="gneJ130"/>
        <trip id="103" depart="75.29" fromJunction="gneJ104" toJunction="gneJ90"/>
        <trip id="104" depart="76.02" fromJunction="gneJ101" toJunction="gneJ127"/>
        <trip id="105" depart="76.75" fromJunction="gneJ102" toJunction="gneJ92"/>
        <trip id="106" depart="77.48" fromJunction="gneJ83" toJunction="gneJ90"/>
        <trip id="107" depart="78.21" fromJunction="gneJ100" toJunction="gneJ98"/>
        <trip id="108" depart="78.94" fromJunction="gneJ80" toJunction="gneJ79"/>
        <trip id="109" depart="79.68" fromJunction="gneJ103" toJunction="gneJ90"/>
        <trip id="110" depart="80.41" fromJunction="gneJ101" toJunction="gneJ130"/>
        <trip id="111" depart="81.14" fromJunction="gneJ80" toJunction="gneJ143"/>
        <trip id="112" depart="81.87" fromJunction="gneJ105" toJunction="gneJ101"/>
        <trip id="113" depart="82.60" fromJunction="gneJ85" toJunction="gneJ81"/>
        <trip id="114" depart="83.33" fromJunction="gneJ94" toJunction="gneJ143"/>
        <trip id="115" depart="84.06" fromJunction="gneJ84" toJunction="gneJ78"/>
        <trip id="116" depart="84.79" fromJunction="gneJ109" toJunction="gneJ115"/>
        <trip id="117" depart="85.52" fromJunction="gneJ110" toJunction="gneJ88"/>
        <trip id="118" depart="86.25" fromJunction="gneJ85" toJunction="gneJ134"/>
        <trip id="119" depart="86.98" fromJunction="gneJ80" toJunction="gneJ137"/>
        <trip id="120" depart="87.72" fromJunction="gneJ75" toJunction="gneJ128"/>
        <trip id="121" depart="88.45" fromJunction="gneJ78" toJunction="gneJ143"/>
        <trip id="122" depart="89.18" fromJunction="gneJ107" toJunction="gneJ138"/>
        <trip id="123" depart="89.91" fromJunction="gneJ97" toJunction="gneJ124"/>
        <trip id="124" depart="90.64" fromJunction="gneJ82" toJunction="gneJ129"/>
        <trip id="125" depart="91.37" fromJunction="gneJ106" toJunction="gneJ100"/>
        <trip id="126" depart="92.10" fromJunction="gneJ96" toJunction="gneJ125"/>
        <trip id="127" depart="92.83" fromJunction="gneJ108" toJunction="gneJ116"/>
        <trip id="128" depart="93.56" fromJunction="gneJ92" toJunction="gneJ88"/>
        <trip id="129" depart="94.29" fromJunction="gneJ80" toJunction="gneJ137"/>
        <trip id="130" depart="95.03" fromJunction="gneJ105" toJunction="gneJ116"/>
        <trip id="131" depart="95.76" fromJunction="gneJ104" toJunction="gneJ134"/>
        <trip id="132" depart="96.49" fromJunction="gneJ103" toJunction="gneJ90"/>
        <trip id="133" depart="97.22" fromJunction="gneJ77" toJunction="gneJ122"/>
        <trip id="134" depart="97.95" fromJunction="gneJ101" toJunction="gneJ124"/>
        <trip id="135" depart="98.68" fromJunction="gneJ110" toJunction="gneJ109"/>
        <trip id="136" depart="99.41" fromJunction="gneJ84" toJunction="gneJ130"/>
        <trip id="137" depart="100.14" fromJunction="gneJ78" toJunction="gneJ99"/>
        <trip id="138" depart="100.87" fromJunction="gneJ89" toJunction="gneJ129"/>
        <trip id="139" depart="101.60" fromJunction="gneJ78" toJunction="gneJ117"/>
        <trip id="140" depart="102.34" fromJunction="gneJ107" toJunction="gneJ127"/>
        <trip id="141" depart="103.07" fromJunction="gneJ100" toJunction="gneJ98"/>
        <trip id="142" depart="103.80" fromJunction="gneJ88" toJunction="gneJ130"/>
        <trip id="143" depart="104.53" fromJunction="gneJ88" toJunction="gneJ82"/>
        <trip id="144" depart="105.26" fromJunction="gneJ101" toJunction="gneJ110"/>
        <trip id="145" depart="105.99" fromJunction="gneJ84" toJunction="gneJ90"/>
        <trip id="146" depart="106.72" fromJunction="gneJ92" toJunction="gneJ135"/>
        <trip id="147" depart="107.45" fromJunction="gneJ89" toJunction="gneJ86"/>
        <trip id="148" depart="108.18" fromJunction="gneJ79" toJunction="gneJ125"/>
        <trip id="149" depart="108.91" fromJunction="gneJ75" toJunction="gneJ86"/>
        <trip id="150" depart="109.64" fromJunction="gneJ107" toJunction="gneJ117"/>
        <trip id="151" depart="110.38" fromJunction="gneJ100" toJunction="gneJ88"/>
        <trip id="152" depart="111.11" fromJunction="gneJ78" toJunction="gneJ133"/>
        <trip id="153" depart="111.84" fromJunction="gneJ85" toJunction="gneJ125"/>
        <trip id="154" depart="112.57" fromJunction="gneJ102" toJunction="gneJ97"/>
        <trip id="155" depart="113.30" fromJunction="gneJ108" toJunction="gneJ129"/>
        <trip id="156" depart="114.03" fromJunction="gneJ91" toJunction="gneJ132"/>
        <trip id="157" depart="114.76" fromJunction="gneJ80" toJunction="gneJ88"/>
        <trip id="158" depart="115.49" fromJunction="gneJ99" toJunction="gneJ115"/>
        <trip id="159" depart="116.22" fromJunction="gneJ94" toJunction="gneJ129"/>
        <trip id="160" depart="116.95" fromJunction="gneJ106" toJunction="gneJ81"/>
        <trip id="161" depart="117.69" fromJunction="gneJ95" toJunction="gneJ93"/>
        <trip id="162" depart="118.42" fromJunction="gneJ110" toJunction="gneJ132"/>
        <trip id="163" depart="119.15" fromJunction="gneJ86" toJunction="gneJ100"/>
        <trip id="164" depart="119.88" fromJunction="gneJ77" toJunction="gneJ136"/>
        <trip id="165" depart="120.61" fromJunction="gneJ110" toJunction="gneJ109"/>
        <trip id="166" depart="121.34" fromJunction="gneJ103" toJunction="gneJ117"/>
        <trip id="167" depart="122.07" fromJunction="gneJ108" toJunction="gneJ143"/>
        <trip id="168" depart="122.80" fromJunction="gneJ78" toJunction="gneJ94"/>
        <trip id="169" depart="123.53" fromJunction="gneJ83" toJunction="gneJ117"/>
        <trip id="170" depart="124.26" fromJunction="gneJ82" toJunction="gneJ132"/>
        <trip id="171" depart="124.99" fromJunction="gneJ105" toJunction="gneJ132"/>
        <trip id="172" depart="125.73" fromJunction="gneJ101" toJunction="gneJ82"/>
        <trip id="173" depart="126.46" fromJunction="gneJ105" toJunction="gneJ117"/>
        <trip id="174" depart="127.19" fromJunction="gneJ109" toJunction="gneJ115"/>
        <trip id="175" depart="127.92" fromJunction="gneJ83" toJunction="gneJ96"/>
        <trip id="176" depart="128.65" fromJunction="gneJ80" toJunction="gneJ123"/>
        <trip id="177" depart="129.38" fromJunction="gneJ75" toJunction="gneJ77"/>
        <trip id="178" depart="130.11" fromJunction="gneJ84" toJunction="gneJ79"/>
        <trip id="179" depart="130.84" fromJunction="gneJ92" toJunction="gneJ138"/>
        <trip id="180" depart="131.57" fromJunction="gneJ83" toJunction="gneJ87"/>
        <trip id="181" depart="132.30" fromJunction="gneJ91" toJunction="gneJ104"/>
        <trip id="182" depart="133.04" fromJunction="gneJ99" toJunction="gneJ98"/>
        <trip id="183" depart="133.77" fromJunction="gneJ75" toJunction="gneJ93"/>
        <trip id="184" depart="134.50" fromJunction="gneJ109" toJunction="gneJ136"/>
        <trip id="185" depart="135.23" fromJunction="gneJ89" toJunction="gneJ90"/>
        <trip id="186" depart="135.96" fromJunction="gneJ99" toJunction="gneJ96"/>
        <trip id="187" depart="136.69" fromJunction="gneJ86" toJunction="gneJ78"/>
        <trip id="188" depart="137.42" fromJunction="gneJ105" toJunction="gneJ143"/>
        <trip id="189" depart="138.15" fromJunction="gneJ104" toJunction="gneJ134"/>
        <trip id="190" depart="138.88" fromJunction="gneJ107" toJunction="gneJ139"/>
        <trip id="191" depart="139.61" fromJunction="gneJ86" toJunction="gneJ103"/>
        <trip id="192" depart="140.35" fromJunction="gneJ78" toJunction="gneJ116"/>
        <trip id="193" depart="141.08" fromJunction="gneJ99" toJunction="gneJ133"/>
        <trip id="194" depart="141.81" fromJunction="gneJ100" toJunction="gneJ98"/>
        <trip id="195" depart="142.54" fromJunction="gneJ85" toJunction="gneJ116"/>
        <trip id="196" depart="143.27" fromJunction="gneJ97" toJunction="gneJ117"/>
        <trip id="197" depart="144.00" fromJunction="gneJ82" toJunction="gneJ123"/>
        <trip id="198" depart="144.73" fromJunction="gneJ81" toJunction="gneJ117"/>
        <trip id="199" depart="145.46" fromJunction="gneJ76" toJunction="gneJ135"/>
        <trip id="200" depart="146.19" fromJunction="gneJ88" toJunction="gneJ131"/>
        <trip id="201" depart="146.92" fromJunction="gneJ75" toJunction="gneJ88"/>
        <trip id="202" depart="147.65" fromJunction="gneJ100" toJunction="gneJ102"/>
        <trip id="203" depart="148.39" fromJunction="gneJ81" toJunction="gneJ84"/>
        <trip id="204" depart="149.12" fromJunction="gneJ87" toJunction="gneJ94"/>
        <trip id="205" depart="149.85" fromJunction="gneJ95" toJunction="gneJ82"/>
        <trip id="206" depart="150.58" fromJunction="gneJ101" toJunction="gneJ138"/>
        <trip id="207" depart="151.31" fromJunction="gneJ86" toJunction="gneJ94"/>
        <trip id="208" depart="152.04" fromJunction="gneJ75" toJunction="gneJ92"/>
        <trip id="209" depart="152.77" fromJunction="gneJ100" toJunction="gneJ77"/>
        <trip id="210" depart="153.50" fromJunction="gneJ102" toJunction="gneJ88"/>
        <trip id="211" depart="154.23" fromJunction="gneJ86" toJunction="gneJ124"/>
        <trip id="212" depart="154.96" fromJunction="gneJ80" toJunction="gneJ84"/>
        <trip id="213" depart="155.70" fromJunction="gneJ75" toJunction="gneJ108"/>
        <trip id="214" depart="156.43" fromJunction="gneJ103" toJunction="gneJ105"/>
        <trip id="215" depart="157.16" fromJunction="gneJ91" toJunction="gneJ114"/>
        <trip id="216" depart="157.89" fromJunction="gneJ86" toJunction="gneJ100"/>
        <trip id="217" depart="158.62" fromJunction="gneJ106" toJunction="gneJ143"/>
        <trip id="218" depart="159.35" fromJunction="gneJ105" toJunction="gneJ134"/>
        <trip id="219" depart="160.08" fromJunction="gneJ94" toJunction="gneJ95"/>
        <trip id="220" depart="160.81" fromJunction="gneJ108" toJunction="gneJ136"/>
        <trip id="221" depart="161.54" fromJunction="gneJ98" toJunction="gneJ137"/>
        <trip id="222" depart="162.27" fromJunction="gneJ101" toJunction="gneJ127"/>
        <trip id="223" depart="163.01" fromJunction="gneJ77" toJunction="gneJ141"/>
        <trip id="224" depart="163.74" fromJunction="gneJ82" toJunction="gneJ108"/>
        <trip id="225" depart="164.47" fromJunction="gneJ85" toJunction="gneJ95"/>
        <trip id="226" depart="165.20" fromJunction="gneJ103" toJunction="gneJ80"/>
        <trip id="227" depart="165.93" fromJunction="gneJ79" toJunction="gneJ128"/>
        <trip id="228" depart="166.66" fromJunction="gneJ102" toJunction="gneJ110"/>
        <trip id="229" depart="167.39" fromJunction="gneJ90" toJunction="gneJ92"/>
        <trip id="230" depart="168.12" fromJunction="gneJ84" toJunction="gneJ117"/>
        <trip id="231" depart="168.85" fromJunction="gneJ86" toJunction="gneJ97"/>
        <trip id="232" depart="169.58" fromJunction="gneJ95" toJunction="gneJ104"/>
        <trip id="233" depart="170.31" fromJunction="gneJ110" toJunction="gneJ102"/>
        <trip id="234" depart="171.05" fromJunction="gneJ80" toJunction="gneJ140"/>
        <trip id="235" depart="171.78" fromJunction="gneJ81" toJunction="gneJ76"/>
        <trip id="236" depart="172.51" fromJunction="gneJ89" toJunction="gneJ139"/>
        <trip id="237" depart="173.24" fromJunction="gneJ82" toJunction="gneJ85"/>
        <trip id="238" depart="173.97" fromJunction="gneJ101" toJunction="gneJ123"/>
        <trip id="239" depart="174.70" fromJunction="gneJ110" toJunction="gneJ109"/>
        <trip id="240" depart="175.43" fromJunction="gneJ84" toJunction="gneJ131"/>
        <trip id="241" depart="176.16" fromJunction="gneJ101" toJunction="gneJ114"/>
        <trip id="242" depart="176.89" fromJunction="gneJ110" toJunction="gneJ127"/>
        <trip id="243" depart="177.62" fromJunction="gneJ100" toJunction="gneJ122"/>
        <trip id="244" depart="178.36" fromJunction="gneJ102" toJunction="gneJ137"/>
        <trip id="245" depart="179.09" fromJunction="gneJ87" toJunction="gneJ82"/>
        <trip id="246" depart="179.82" fromJunction="gneJ92" toJunction="gneJ105"/>
        <trip id="247" depart="180.55" fromJunction="gneJ103" toJunction="gneJ96"/>
        <trip id="248" depart="181.28" fromJunction="gneJ100" toJunction="gneJ115"/>
        <trip id="249" depart="182.01" fromJunction="gneJ76" toJunction="gneJ132"/>
        <trip id="250" depart="182.74" fromJunction="gneJ82" toJunction="gneJ79"/>
        <trip id="251" depart="183.47" fromJunction="gneJ91" toJunction="gneJ129"/>
        <trip id="252" depart="184.20" fromJunction="gneJ109" toJunction="gneJ102"/>
        <trip id="253" depart="184.93" fromJunction="gneJ85" toJunction="gneJ78"/>
        <trip id="254" depart="185.66" fromJunction="gneJ96" toJunction="gneJ123"/>
        <trip id="255" depart="186.40" fromJunction="gneJ107" toJunction="gneJ139"/>
        <trip id="256" depart="187.13" fromJunction="gneJ107" toJunction="gneJ88"/>
        <trip id="257" depart="187.86" fromJunction="gneJ98" toJunction="gneJ122"/>
        <trip id="258" depart="188.59" fromJunction="gneJ106" toJunction="gneJ81"/>
        <trip id="259" depart="189.32" fromJunction="gneJ77" toJunction="gneJ97"/>
        <trip id="260" depart="190.05" fromJunction="gneJ105" toJunction="gneJ99"/>
        <trip id="261" depart="190.78" fromJunction="gneJ109" toJunction="gneJ143"/>
        <trip id="262" depart="191.51" fromJunction="gneJ89" toJunction="gneJ124"/>
        <trip id="263" depart="192.24" fromJunction="gneJ109" toJunction="gneJ115"/>
        <trip id="264" depart="192.97" fromJunction="gneJ99" toJunction="gneJ104"/>
        <trip id="265" depart="193.71" fromJunction="gneJ102" toJunction="gneJ130"/>
        <trip id="266" depart="194.44" fromJunction="gneJ93" toJunction="gneJ132"/>
        <trip id="267" depart="195.17" fromJunction="gneJ86" toJunction="gneJ90"/>
        <trip id="268" depart="195.90" fromJunction="gneJ89" toJunction="gneJ131"/>
        <trip id="269" depart="196.63" fromJunction="gneJ99" toJunction="gneJ98"/>
        <trip id="270" depart="197.36" fromJunction="gneJ104" toJunction="gneJ131"/>
        <trip id="271" depart="198.09" fromJunction="gneJ103" toJunction="gneJ109"/>
        <trip id="272" depart="198.82" fromJunction="gneJ102" toJunction="gneJ77"/>
        <trip id="273" depart="199.55" fromJunction="gneJ94" toJunction="gneJ83"/>
        <trip id="274" depart="200.28" fromJunction="gneJ99" toJunction="gneJ108"/>
        <trip id="275" depart="201.02" fromJunction="gneJ85" toJunction="gneJ110"/>
        <trip id="276" depart="201.75" fromJunction="gneJ104" toJunction="gneJ78"/>
        <trip id="277" depart="202.48" fromJunction="gneJ88" toJunction="gneJ95"/>
        <trip id="278" depart="203.21" fromJunction="gneJ97" toJunction="gneJ127"/>
        <trip id="279" depart="203.94" fromJunction="gneJ93" toJunction="gneJ136"/>
        <trip id="280" depart="204.67" fromJunction="gneJ77" toJunction="gneJ139"/>
        <trip id="281" depart="205.40" fromJunction="gneJ104" toJunction="gneJ76"/>
        <trip id="282" depart="206.13" fromJunction="gneJ104" toJunction="gneJ76"/>
        <trip id="283" depart="206.86" fromJunction="gneJ94" toJunction="gneJ102"/>
        <trip id="284" depart="207.59" fromJunction="gneJ80" toJunction="gneJ92"/>
        <trip id="285" depart="208.32" fromJunction="gneJ76" toJunction="gneJ96"/>
        <trip id="286" depart="209.06" fromJunction="gneJ100" toJunction="gneJ78"/>
        <trip id="287" depart="209.79" fromJunction="gneJ78" toJunction="gneJ123"/>
        <trip id="288" depart="210.52" fromJunction="gneJ102" toJunction="gneJ91"/>
        <trip id="289" depart="211.25" fromJunction="gneJ107" toJunction="gneJ103"/>
        <trip id="290" depart="211.98" fromJunction="gneJ107" toJunction="gneJ103"/>
        <trip id="291" depart="212.71" fromJunction="gneJ100" toJunction="gneJ127"/>
        <trip id="292" depart="213.44" fromJunction="gneJ94" toJunction="gneJ107"/>
        <trip id="293" depart="214.17" fromJunction="gneJ105" toJunction="gneJ117"/>
        <trip id="294" depart="214.90" fromJunction="gneJ78" toJunction="gneJ131"/>
        <trip id="295" depart="215.63" fromJunction="gneJ78" toJunction="gneJ98"/>
        <trip id="296" depart="216.37" fromJunction="gneJ107" toJunction="gneJ103"/>
        <trip id="297" depart="217.10" fromJunction="gneJ102" toJunction="gneJ96"/>
        <trip id="298" depart="217.83" fromJunction="gneJ108" toJunction="gneJ101"/>
        <trip id="299" depart="218.56" fromJunction="gneJ84" toJunction="gneJ138"/>
        <trip id="300" depart="219.29" fromJunction="gneJ107" toJunction="gneJ101"/>
        <trip id="301" depart="220.02" fromJunction="gneJ94" toJunction="gneJ128"/>
        <trip id="302" depart="220.75" fromJunction="gneJ99" toJunction="gneJ140"/>
        <trip id="303" depart="221.48" fromJunction="gneJ95" toJunction="gneJ92"/>
        <trip id="304" depart="222.21" fromJunction="gneJ83" toJunction="gneJ130"/>
        <trip id="305" depart="222.94" fromJunction="gneJ79" toJunction="gneJ125"/>
        <trip id="306" depart="223.68" fromJunction="gneJ79" toJunction="gneJ98"/>
        <trip id="307" depart="224.41" fromJunction="gneJ96" toJunction="gneJ123"/>
        <trip id="308" depart="225.14" fromJunction="gneJ101" toJunction="gneJ128"/>
        <trip id="309" depart="225.87" fromJunction="gneJ97" toJunction="gneJ89"/>
        <trip id="310" depart="226.60" fromJunction="gneJ81" toJunction="gneJ129"/>
        <trip id="311" depart="227.33" fromJunction="gneJ88" toJunction="gneJ109"/>
        <trip id="312" depart="228.06" fromJunction="gneJ84" toJunction="gneJ79"/>
        <trip id="313" depart="228.79" fromJunction="gneJ82" toJunction="gneJ97"/>
        <trip id="314" depart="229.52" fromJunction="gneJ75" toJunction="gneJ128"/>
        <trip id="315" depart="230.25" fromJunction="gneJ105" toJunction="gneJ76"/>
        <trip id="316" depart="230.98" fromJunction="gneJ88" toJunction="gneJ92"/>
        <trip id="317" depart="231.72" fromJunction="gneJ105" toJunction="gneJ134"/>
        <trip id="318" depart="232.45" fromJunction="gneJ92" toJunction="gneJ138"/>
        <trip id="319" depart="233.18" fromJunction="gneJ85" toJunction="gneJ137"/>
        <trip id="320" depart="233.91" fromJunction="gneJ90" toJunction="gneJ133"/>
        <trip id="321" depart="234.64" fromJunction="gneJ84" toJunction="gneJ78"/>
        <trip id="322" depart="235.37" fromJunction="gneJ108" toJunction="gneJ80"/>
        <trip id="323" depart="236.10" fromJunction="gneJ103" toJunction="gneJ102"/>
        <trip id="324" depart="236.83" fromJunction="gneJ97" toJunction="gneJ100"/>
        <trip id="325" depart="237.56" fromJunction="gneJ87" toJunction="gneJ82"/>
        <trip id="326" depart="238.29" fromJunction="gneJ103" toJunction="gneJ89"/>
        <trip id="327" depart="239.03" fromJunction="gneJ90" toJunction="gneJ85"/>
        <trip id="328" depart="239.76" fromJunction="gneJ107" toJunction="gneJ78"/>
        <trip id="329" depart="240.49" fromJunction="gneJ107" toJunction="gneJ79"/>
        <trip id="330" depart="241.22" fromJunction="gneJ107" toJunction="gneJ136"/>
        <trip id="331" depart="241.95" fromJunction="gneJ91" toJunction="gneJ98"/>
        <trip id="332" depart="242.68" fromJunction="gneJ91" toJunction="gneJ89"/>
        <trip id="333" depart="243.41" fromJunction="gneJ84" toJunction="gneJ122"/>
        <trip id="334" depart="244.14" fromJunction="gneJ108" toJunction="gneJ79"/>
        <trip id="335" depart="244.87" fromJunction="gneJ108" toJunction="gneJ124"/>
        <trip id="336" depart="245.60" fromJunction="gneJ110" toJunction="gneJ132"/>
        <trip id="337" depart="246.34" fromJunction="gneJ94" toJunction="gneJ114"/>
        <trip id="338" depart="247.07" fromJunction="gneJ100" toJunction="gneJ85"/>
        <trip id="339" depart="247.80" fromJunction="gneJ95" toJunction="gneJ124"/>
        <trip id="340" depart="248.53" fromJunction="gneJ83" toJunction="gneJ131"/>
        <trip id="341" depart="249.26" fromJunction="gneJ101" toJunction="gneJ138"/>
        <trip id="342" depart="249.99" fromJunction="gneJ96" toJunction="gneJ128"/>
        <trip id="343" depart="250.72" fromJunction="gneJ82" toJunction="gneJ85"/>
        <trip id="344" depart="251.45" fromJunction="gneJ89" toJunction="gneJ130"/>
        <trip id="345" depart="252.18" fromJunction="gneJ81" toJunction="gneJ110"/>
        <trip id="346" depart="252.91" fromJunction="gneJ85" toJunction="gneJ141"/>
        <trip id="347" depart="253.64" fromJunction="gneJ78" toJunction="gneJ92"/>
        <trip id="348" depart="254.38" fromJunction="gneJ97" toJunction="gneJ129"/>
        <trip id="349" depart="255.11" fromJunction="gneJ105" toJunction="gneJ98"/>
        <trip id="350" depart="255.84" fromJunction="gneJ99" toJunction="gneJ137"/>
        <trip id="351" depart="256.57" fromJunction="gneJ82" toJunction="gneJ143"/>
        <trip id="352" depart="257.30" fromJunction="gneJ100" toJunction="gneJ108"/>
        <trip id="353" depart="258.03" fromJunction="gneJ109" toJunction="gneJ77"/>
        <trip id="354" depart="258.76" fromJunction="gneJ94" toJunction="gneJ106"/>
        <trip id="355" depart="259.49" fromJunction="gneJ84" toJunction="gneJ128"/>
        <trip id="356" depart="260.22" fromJunction="gneJ81" toJunction="gneJ125"/>