<?xml version="1.0" encoding="UTF-8"?>
<!-- generated on 2022-04-29 13:57:52.577858 by tripsFromRoutes.py v1_10_0+0000-83496a5972
  options: -i sampledRoutes.rou.xml -r basicRoutes.rou.xml -t simpleTrips.trips.xml -o ../ltn/ltnTrips.rou.xml
-->
<routes>
        <trip id="0" depart="0.00" fromJunction="gneJ92" toJunction="gneJ100"/>
        <trip id="1" depart="0.51" fromJunction="gneJ109" toJunction="gneJ108"/>
        <trip id="2" depart="1.01" fromJunction="gneJ84" toJunction="gneJ83"/>
        <trip id="3" depart="1.52" fromJunction="gneJ82" toJunction="gneJ80"/>
        <trip id="4" depart="2.03" fromJunction="gneJ102" toJunction="gneJ78"/>
        <trip id="5" depart="2.53" fromJunction="gneJ91" toJunction="gneJ81"/>
        <trip id="6" depart="3.04" fromJunction="gneJ110" toJunction="gneJ109"/>
        <trip id="7" depart="3.55" fromJunction="gneJ105" toJunction="gneJ124"/>
        <trip id="8" depart="4.05" fromJunction="gneJ91" toJunction="gneJ114"/>
        <trip id="9" depart="4.56" fromJunction="gneJ96" toJunction="gneJ99"/>
        <trip id="10" depart="5.07" fromJunction="gneJ101" toJunction="gneJ99"/>
        <trip id="11" depart="5.57" fromJunction="gneJ109" toJunction="gneJ103"/>
        <trip id="12" depart="6.08" fromJunction="gneJ98" toJunction="gneJ79"/>
        <trip id="13" depart="6.59" fromJunction="gneJ85" toJunction="gneJ122"/>
        <trip id="14" depart="7.09" fromJunction="gneJ83" toJunction="gneJ99"/>
        <trip id="15" depart="7.60" fromJunction="gneJ81" toJunction="gneJ106"/>
        <trip id="16" depart="8.11" fromJunction="gneJ87" toJunction="gneJ103"/>
        <trip id="17" depart="8.61" fromJunction="gneJ78" toJunction="gneJ87"/>
        <trip id="18" depart="9.12" fromJunction="gneJ104" toJunction="gneJ79"/>
        <trip id="19" depart="9.63" fromJunction="gneJ84" toJunction="gneJ98"/>
        <trip id="20" depart="10.13" fromJunction="gneJ97" toJunction="gneJ93"/>
        <trip id="21" depart="10.64" fromJunction="gneJ99" toJunction="gneJ123"/>
        <trip id="22" depart="11.15" fromJunction="gneJ90" toJunction="gneJ85"/>
        <trip id="23" depart="11.65" fromJunction="gneJ100" toJunction="gneJ103"/>
        <trip id="24" depart="12.16" fromJunction="gneJ82" toJunction="gneJ94"/>
        <trip id="25" depart="12.67" fromJunction="gneJ106" toJunction="gneJ98"/>
        <trip id="26" depart="13.17" fromJunction="gneJ105" toJunction="gneJ107"/>
        <trip id="27" depart="13.68" fromJunction="gneJ104" toJunction="gneJ85"/>
        <trip id="28" depart="14.19" fromJunction="gneJ107" toJunction="gneJ96"/>
        <trip id="29" depart="14.69" fromJunction="gneJ75" toJunction="gneJ123"/>
        <trip id="30" depart="15.20" fromJunction="gneJ106" toJunction="gneJ100"/>
        <trip id="31" depart="15.71" fromJunction="gneJ90" toJunction="gneJ80"/>
        <trip id="32" depart="16.21" fromJunction="gneJ86" toJunction="gneJ99"/>
        <trip id="33" depart="16.72" fromJunction="gneJ77" toJunction="gneJ93"/>
        <trip id="34" depart="17.23" fromJunction="gneJ96" toJunction="gneJ123"/>
        <trip id="35" depart="17.73" fromJunction="gneJ102" toJunction="gneJ104"/>
        <trip id="36" depart="18.24" fromJunction="gneJ95" toJunction="gneJ75"/>
        <trip id="37" depart="18.75" fromJunction="gneJ91" toJunction="gneJ76"/>
        <trip id="38" depart="19.25" fromJunction="gneJ97" toJunction="gneJ109"/>
        <trip id="39" depart="19.76" fromJunction="gneJ78" toJunction="gneJ82"/>
        <trip id="40" depart="20.27" fromJunction="gneJ90" toJunction="gneJ76"/>
        <trip id="41" depart="20.77" fromJunction="gneJ106" toJunction="gneJ109"/>
        <trip id="42" depart="21.28" fromJunction="gneJ101" toJunction="gneJ115"/>
        <trip id="43" depart="21.79" fromJunction="gneJ91" toJunction="gneJ94"/>
        <trip id="44" depart="22.29" fromJunction="gneJ78" toJunction="gneJ85"/>
        <trip id="45" depart="22.80" fromJunction="gneJ104" toJunction="gneJ103"/>
        <trip id="46" depart="23.31" fromJunction="gneJ91" toJunction="gneJ80"/>
        <trip id="47" depart="23.81" fromJunction="gneJ82" toJunction="gneJ106"/>
        <trip id="48" depart="24.32" fromJunction="gneJ90" toJunction="gneJ103"/>
        <trip id="49" depart="24.83" fromJunction="gneJ90" toJunction="gneJ78"/>
        <trip id="50" depart="25.33" fromJunction="gneJ95" toJunction="gneJ106"/>
        <trip id="51" depart="25.84" fromJunction="gneJ100" toJunction="gneJ102"/>
        <trip id="52" depart="26.35" fromJunction="gneJ84" toJunction="gneJ83"/>
        <trip id="53" depart="26.85" fromJunction="gneJ99" toJunction="gneJ91"/>
        <trip id="54" depart="27.36" fromJunction="gneJ110" toJunction="gneJ115"/>
        <trip id="55" depart="27.87" fromJunction="gneJ86" toJunction="gneJ102"/>
        <trip id="56" depart="28.37" fromJunction="gneJ77" toJunction="gneJ96"/>
        <trip id="57" depart="28.88" fromJunction="gneJ78" toJunction="gneJ93"/>
        <trip id="58" depart="29.39" fromJunction="gneJ88" toJunction="gneJ80"/>
        <trip id="59" depart="29.89" fromJunction="gneJ106" toJunction="gneJ109"/>
        <trip id="60" depart="30.40" fromJunction="gneJ91" toJunction="gneJ77"/>
        <trip id="61" depart="30.91" fromJunction="gneJ110" toJunction="gneJ75"/>
        <trip id="62" depart="31.41" fromJunction="gneJ103" toJunction="gneJ93"/>
        <trip id="63" depart="31.92" fromJunction="gneJ97" toJunction="gneJ80"/>
        <trip id="64" depart="32.43" fromJunction="gneJ105" toJunction="gneJ85"/>
        <trip id="65" depart="32.93" fromJunction="gneJ90" toJunction="gneJ82"/>
        <trip id="66" depart="33.44" fromJunction="gneJ106" toJunction="gneJ85"/>
        <trip id="67" depart="33.95" fromJunction="gneJ81" toJunction="gneJ82"/>
        <trip id="68" depart="34.45" fromJunction="gneJ104" toJunction="gneJ102"/>
        <trip id="69" depart="34.96" fromJunction="gneJ110" toJunction="gneJ82"/>
        <trip id="70" depart="35.47" fromJunction="gneJ107" toJunction="gneJ108"/>
        <trip id="71" depart="35.97" fromJunction="gneJ76" toJunction="gneJ108"/>
        <trip id="72" depart="36.48" fromJunction="gneJ85" toJunction="gneJ123"/>
        <trip id="73" depart="36.99" fromJunction="gneJ102" toJunction="gneJ122"/>
        <trip id="74" depart="37.49" fromJunction="gneJ97" toJunction="gneJ114"/>
        <trip id="75" depart="38.00" fromJunction="gneJ93" toJunction="gneJ101"/>
        <trip id="76" depart="38.51" fromJunction="gneJ86" toJunction="gneJ114"/>
        <trip id="77" depart="39.01" fromJunction="gneJ80" toJunction="gneJ124"/>
        <trip id="78" depart="39.52" fromJunction="gneJ110" toJunction="gneJ108"/>
        <trip id="79" depart="40.03" fromJunction="gneJ84" toJunction="gneJ88"/>
        <trip id="80" depart="40.53" fromJunction="gneJ88" toJunction="gneJ103"/>
        <trip id="81" depart="41.04" fromJunction="gneJ79" toJunction="gneJ124"/>
        <trip id="82" depart="41.55" fromJunction="gneJ99" toJunction="gneJ76"/>
        <trip id="83" depart="42.05" fromJunction="gneJ96" toJunction="gneJ93"/>
        <trip id="84" depart="42.56" fromJunction="gneJ110" toJunction="gneJ109"/>
        <trip id="85" depart="43.07" fromJunction="gneJ110" toJunction="gneJ92"/>
        <trip id="86" depart="43.57" fromJunction="gneJ82" toJunction="gneJ89"/>
        <trip id="87" depart="44.08" fromJunction="gneJ107" toJunction="gneJ103"/>
        <trip id="88" depart="44.59" fromJunction="gneJ98" toJunction="gneJ108"/>
        <trip id="89" depart="45.10" fromJunction="gneJ75" toJunction="gneJ114"/>
        <trip id="90" depart="45.60" fromJunction="gneJ88" toJunction="gneJ114"/>
        <trip id="91" depart="46.11" fromJunction="gneJ105" toJunction="gneJ77"/>
        <trip id="92" depart="46.62" fromJunction="gneJ77" toJunction="gneJ125"/>
        <trip id="93" depart="47.12" fromJunction="gneJ79" toJunction="gneJ83"/>
        <trip id="94" depart="47.63" fromJunction="gneJ110" toJunction="gneJ81"/>
        <trip id="95" depart="48.14" fromJunction="gneJ98" toJunction="gneJ96"/>
        <trip id="96" depart="48.64" fromJunction="gneJ90" toJunction="gneJ84"/>
        <trip id="97" depart="49.15" fromJunction="gneJ107" toJunction="gneJ106"/>
        <trip id="98" depart="49.66" fromJunction="gneJ92" toJunction="gneJ109"/>
        <trip id="99" depart="50.16" fromJunction="gneJ91" toJunction="gneJ86"/>
        <trip id="100" depart="50.67" fromJunction="gneJ103" toJunction="gneJ104"/>
        <trip id="101" depart="51.18" fromJunction="gneJ82" toJunction="gneJ108"/>
        <trip id="102" depart="51.68" fromJunction="gneJ97" toJunction="gneJ125"/>
        <trip id="103" depart="52.19" fromJunction="gneJ95" toJunction="gneJ76"/>
        <trip id="104" depart="52.70" fromJunction="gneJ109" toJunction="gneJ86"/>
        <trip id="105" depart="53.20" fromJunction="gneJ95" toJunction="gneJ89"/>
        <trip id="106" depart="53.71" fromJunction="gneJ94" toJunction="gneJ80"/>
        <trip id="107" depart="54.22" fromJunction="gneJ85" toJunction="gneJ90"/>
        <trip id="108" depart="54.72" fromJunction="gneJ87" toJunction="gneJ97"/>
        <trip id="109" depart="55.23" fromJunction="gneJ95" toJunction="gneJ86"/>
        <trip id="110" depart="55.74" fromJunction="gneJ99" toJunction="gneJ106"/>
        <trip id="111" depart="56.24" fromJunction="gneJ81" toJunction="gneJ108"/>
        <trip id="112" depart="56.75" fromJunction="gneJ110" toJunction="gneJ98"/>
        <trip id="113" depart="57.26" fromJunction="gneJ83" toJunction="gneJ92"/>
        <trip id="114" depart="57.76" fromJunction="gneJ85" toJunction="gneJ90"/>
        <trip id="115" depart="58.27" fromJunction="gneJ91" toJunction="gneJ82"/>
        <trip id="116" depart="58.78" fromJunction="gneJ100" toJunction="gneJ90"/>
        <trip id="117" depart="59.28" fromJunction="gneJ96" toJunction="gneJ110"/>
        <trip id="118" depart="59.79" fromJunction="gneJ83" toJunction="gneJ106"/>
        <trip id="119" depart="60.30" fromJunction="gneJ99" toJunction="gneJ107"/>
        <trip id="120" depart="60.80" fromJunction="gneJ106" toJunction="gneJ101"/>
        <trip id="121" depart="61.31" fromJunction="gneJ96" toJunction="gneJ88"/>
        <trip id="122" depart="61.82" fromJunction="gneJ80" toJunction="gneJ81"/>
        <trip id="123" depart="62.32" fromJunction="gneJ81" toJunction="gneJ116"/>
        <trip id="124" depart="62.83" fromJunction="gneJ109" toJunction="gneJ100"/>
        <trip id="125" depart="63.34" fromJunction="gneJ100" toJunction="gneJ77"/>
        <trip id="126" depart="63.84" fromJunction="gneJ107" toJunction="gneJ106"/>
        <trip id="127" depart="64.35" fromJunction="gneJ87" toJunction="gneJ90"/>
        <trip id="128" depart="64.86" fromJunction="gneJ98" toJunction="gneJ76"/>
        <trip id="129" depart="65.36" fromJunction="gneJ102" toJunction="gneJ88"/>
        <trip id="130" depart="65.87" fromJunction="gneJ78" toJunction="gneJ76"/>
        <trip id="131" depart="66.38" fromJunction="gneJ86" toJunction="gneJ104"/>
        <trip id="132" depart="66.88" fromJunction="gneJ76" toJunction="gneJ81"/>
        <trip id="133" depart="67.39" fromJunction="gneJ105" toJunction="gneJ84"/>
        <trip id="134" depart="67.90" fromJunction="gneJ77" toJunction="gneJ108"/>
        <trip id="135" depart="68.40" fromJunction="gneJ110" toJunction="gneJ108"/>
        <trip id="136" depart="68.91" fromJunction="gneJ82" toJunction="gneJ80"/>
        <trip id="137" depart="69.42" fromJunction="gneJ101" toJunction="gneJ79"/>
        <trip id="138" depart="69.92" fromJunction="gneJ108" toJunction="gneJ82"/>
        <trip id="139" depart="70.43" fromJunction="gneJ81" toJunction="gneJ82"/>
        <trip id="140" depart="70.94" fromJunction="gneJ102" toJunction="gneJ104"/>
        <trip id="141" depart="71.44" fromJunction="gneJ105" toJunction="gneJ85"/>
        <trip id="142" depart="71.95" fromJunction="gneJ103" toJunction="gneJ98"/>
        <trip id="143" depart="72.46" fromJunction="gneJ107" toJunction="gneJ117"/>
        <trip id="144" depart="72.96" fromJunction="gneJ93" toJunction="gneJ87"/>
        <trip id="145" depart="73.47" fromJunction="gneJ82" toJunction="gneJ87"/>
        <trip id="146" depart="73.98" fromJunction="gneJ95" toJunction="gneJ110"/>
        <trip id="147" depart="74.48" fromJunction="gneJ109" toJunction="gneJ98"/>
        <trip id="148" depart="74.99" fromJunction="gneJ95" toJunction="gneJ116"/>
        <trip id="149" depart="75.50" fromJunction="gneJ108" toJunction="gneJ109"/>
        <trip id="150" depart="76.00" fromJunction="gneJ91" toJunction="gneJ92"/>
        <trip id="151" depart="76.51" fromJunction="gneJ110" toJunction="gneJ122"/>
        <trip id="152" depart="77.02" fromJunction="gneJ87" toJunction="gneJ97"/>
        <trip id="153" depart="77.52" fromJunction="gneJ104" toJunction="gneJ87"/>
        <trip id="154" depart="78.03" fromJunction="gneJ101" toJunction="gneJ77"/>
        <trip id="155" depart="78.54" fromJunction="gneJ101" toJunction="gneJ122"/>
        <trip id="156" depart="79.04" fromJunction="gneJ80" toJunction="gneJ95"/>
        <trip id="157" depart="79.55" fromJunction="gneJ87" toJunction="gneJ116"/>
        <trip id="158" depart="80.06" fromJunction="gneJ88" toJunction="gneJ105"/>
        <trip id="159" depart="80.56" fromJunction="gneJ104" toJunction="gneJ122"/>
        <trip id="160" depart="81.07" fromJunction="gneJ102" toJunction="gneJ83"/>
        <trip id="161" depart="81.58" fromJunction="gneJ82" toJunction="gneJ106"/>
        <trip id="162" depart="82.08" fromJunction="gneJ87" toJunction="gneJ122"/>
        <trip id="163" depart="82.59" fromJunction="gneJ75" toJunction="gneJ89"/>
        <trip id="164" depart="83.10" fromJunction="gneJ95" toJunction="gneJ89"/>
        <trip id="165" depart="83.60" fromJunction="gneJ84" toJunction="gneJ122"/>
        <trip id="166" depart="84.11" fromJunction="gneJ107" toJunction="gneJ106"/>
        <trip id="167" depart="84.62" fromJunction="gneJ98" toJunction="gneJ87"/>
        <trip id="168" depart="85.12" fromJunction="gneJ75" toJunction="gneJ123"/>
        <trip id="169" depart="85.63" fromJunction="gneJ84" toJunction="gneJ83"/>
        <trip id="170" depart="86.14" fromJunction="gneJ84" toJunction="gneJ108"/>
        <trip id="171" depart="86.64" fromJunction="gneJ90" toJunction="gneJ117"/>
        <trip id="172" depart="87.15" fromJunction="gneJ87" toJunction="gneJ114"/>
        <trip id="173" depart="87.66" fromJunction="gneJ106" toJunction="gneJ86"/>
        <trip id="174" depart="88.16" fromJunction="gneJ110" toJunction="gneJ107"/>
        <trip id="175" depart="88.67" fromJunction="gneJ97" toJunction="gneJ90"/>
        <trip id="176" depart="89.18" fromJunction="gneJ81" toJunction="gneJ102"/>
        <trip id="177" depart="89.68" fromJunction="gneJ88" toJunction="gneJ97"/>
        <trip id="178" depart="90.19" fromJunction="gneJ110" toJunction="gneJ78"/>
        <trip id="179" depart="90.70" fromJunction="gneJ98" toJunction="gneJ95"/>
        <trip id="180" depart="91.20" fromJunction="gneJ79" toJunction="gneJ84"/>
        <trip id="181" depart="91.71" fromJunction="gneJ84" toJunction="gneJ88"/>
        <trip id="182" depart="92.22" fromJunction="gneJ110" toJunction="gneJ109"/>
        <trip id="183" depart="92.72" fromJunction="gneJ77" toJunction="gneJ117"/>
        <trip id="184" depart="93.23" fromJunction="gneJ102" toJunction="gneJ104"/>
        <trip id="185" depart="93.74" fromJunction="gneJ83" toJunction="gneJ94"/>
        <trip id="186" depart="94.24" fromJunction="gneJ96" toJunction="gneJ86"/>
        <trip id="187" depart="94.75" fromJunction="gneJ76" toJunction="gneJ81"/>
        <trip id="188" depart="95.26" fromJunction="gneJ85" toJunction="gneJ79"/>
        <trip id="189" depart="95.76" fromJunction="gneJ76" toJunction="gneJ114"/>
        <trip id="190" depart="96.27" fromJunction="gneJ80" toJunction="gneJ84"/>
        <trip id="191" depart="96.78" fromJunction="gneJ110" toJunction="gneJ83"/>
        <trip id="192" depart="97.28" fromJunction="gneJ92" toJunction="gneJ87"/>
        <trip id="193" depart="97.79" fromJunction="gneJ83" toJunction="gneJ105"/>
        <trip id="194" depart="98.30" fromJunction="gneJ101" toJunction="gneJ103"/>
        <trip id="195" depart="98.80" fromJunction="gneJ97" toJunction="gneJ96"/>
        <trip id="196" depart="99.31" fromJunction="gneJ91" toJunction="gneJ103"/>
        <trip id="197" depart="99.82" fromJunction="gneJ99" toJunction="gneJ79"/>
        <trip id="198" depart="100.32" fromJunction="gneJ95" toJunction="gneJ79"/>
        <trip id="199" depart="100.83" fromJunction="gneJ110" toJunction="gneJ80"/>
        <trip id="200" depart="101.34" fromJunction="gneJ80" toJunction="gneJ89"/>
        <trip id="201" depart="101.84" fromJunction="gneJ78" toJunction="gneJ79"/>
        <trip id="202" depart="102.35" fromJunction="gneJ83" toJunction="gneJ86"/>
        <trip id="203" depart="102.86" fromJunction="gneJ91" toJunction="gneJ83"/>
        <trip id="204" depart="103.36" fromJunction="gneJ80" toJunction="gneJ94"/>
        <trip id="205" depart="103.87" fromJunction="gneJ87" toJunction="gneJ99"/>
        <trip id="206" depart="104.38" fromJunction="gneJ88" toJunction="gneJ105"/>
        <trip id="207" depart="104.88" fromJunction="gneJ87" toJunction="gneJ108"/>
        <trip id="208" depart="105.39" fromJunction="gneJ88" toJunction="gneJ100"/>
        <trip id="209" depart="105.90" fromJunction="gneJ75" toJunction="gneJ76"/>
        <trip id="210" depart="106.40" fromJunction="gneJ78" toJunction="gneJ89"/>
        <trip id="211" depart="106.91" fromJunction="gneJ86" toJunction="gneJ93"/>
        <trip id="212" depart="107.42" fromJunction="gneJ78" toJunction="gneJ86"/>
        <trip id="213" depart="107.92" fromJunction="gneJ78" toJunction="gneJ114"/>
        <trip id="214" depart="108.43" fromJunction="gneJ85" toJunction="gneJ87"/>
        <trip id="215" depart="108.94" fromJunction="gneJ100" toJunction="gneJ102"/>
        <trip id="216" depart="109.44" fromJunction="gneJ86" toJunction="gneJ99"/>
        <trip id="217" depart="109.95" fromJunction="gneJ94" toJunction="gneJ80"/>
        <trip id="218" depart="110.46" fromJunction="gneJ98" toJunction="gneJ103"/>
        <trip id="219" depart="110.96" fromJunction="gneJ99" toJunction="gneJ125"/>
        <trip id="220" depart="111.47" fromJunction="gneJ83" toJunction="gneJ78"/>
        <trip id="221" depart="111.98" fromJunction="gneJ87" toJunction="gneJ108"/>
        <trip id="222" depart="112.48" fromJunction="gneJ100" toJunction="gneJ102"/>
        <trip id="223" depart="112.99" fromJunction="gneJ101" toJunction="gneJ110"/>
        <trip id="224" depart="113.50" fromJunction="gneJ97" toJunction="gneJ88"/>
        <trip id="225" depart="114.00" fromJunction="gneJ92" toJunction="gneJ91"/>
        <trip id="226" depart="114.51" fromJunction="gneJ90" toJunction="gneJ104"/>
        <trip id="227" depart="115.02" fromJunction="gneJ77" toJunction="gneJ114"/>
        <trip id="228" depart="115.52" fromJunction="gneJ100" toJunction="gneJ109"/>
        <trip id="229" depart="116.03" fromJunction="gneJ98" toJunction="gneJ77"/>
        <trip id="230" depart="116.54" fromJunction="gneJ78" toJunction="gneJ85"/>
        <trip id="231" depart="117.04" fromJunction="gneJ90" toJunction="gneJ115"/>
        <trip id="232" depart="117.55" fromJunction="gneJ84" toJunction="gneJ83"/>
        <trip id="233" depart="118.06" fromJunction="gneJ101" toJunction="gneJ104"/>
        <trip id="234" depart="118.56" fromJunction="gneJ77" toJunction="gneJ76"/>
        <trip id="235" depart="119.07" fromJunction="gneJ84" toJunction="gneJ83"/>
        <trip id="236" depart="119.58" fromJunction="gneJ86" toJunction="gneJ80"/>
        <trip id="237" depart="120.08" fromJunction="gneJ103" toJunction="gneJ108"/>
        <trip id="238" depart="120.59" fromJunction="gneJ77" toJunction="gneJ93"/>
        <trip id="239" depart="121.10" fromJunction="gneJ108" toJunction="gneJ88"/>
        <trip id="240" depart="121.60" fromJunction="gneJ95" toJunction="gneJ90"/>
        <trip id="241" depart="122.11" fromJunction="gneJ84" toJunction="gneJ83"/>
        <trip id="242" depart="122.62" fromJunction="gneJ105" toJunction="gneJ89"/>
        <trip id="243" depart="123.12" fromJunction="gneJ97" toJunction="gneJ95"/>
        <trip id="244" depart="123.63" fromJunction="gneJ108" toJunction="gneJ109"/>
        <trip id="245" depart="124.14" fromJunction="gneJ79" toJunction="gneJ77"/>
        <trip id="246" depart="124.64" fromJunction="gneJ103" toJunction="gneJ102"/>
        <trip id="247" depart="125.15" fromJunction="gneJ108" toJunction="gneJ109"/>
        <trip id="248" depart="125.66" fromJunction="gneJ85" toJunction="gneJ97"/>
        <trip id="249" depart="126.16" fromJunction="gneJ104" toJunction="gneJ87"/>
        <trip id="250" depart="126.67" fromJunction="gneJ75" toJunction="gneJ76"/>
        <trip id="251" depart="127.18" fromJunction="gneJ82" toJunction="gneJ110"/>
        <trip id="252" depart="127.68" fromJunction="gneJ100" toJunction="gneJ86"/>
        <trip id="253" depart="128.19" fromJunction="gneJ82" toJunction="gneJ110"/>
        <trip id="254" depart="128.70" fromJunction="gneJ107" toJunction="gneJ108"/>
        <trip id="255" depart="129.20" fromJunction="gneJ90" toJunction="gneJ102"/>
        <trip id="256" depart="129.71" fromJunction="gneJ84" toJunction="gneJ83"/>
        <trip id="257" depart="130.22" fromJunction="gneJ92" toJunction="gneJ109"/>
        <trip id="258" depart="130.72" fromJunction="gneJ103" toJunction="gneJ78"/>
        <trip id="259" depart="131.23" fromJunction="gneJ106" toJunction="gneJ80"/>
        <trip id="260" depart="131.74" fromJunction="gneJ106" toJunction="gneJ104"/>
        <trip id="261" depart="132.24" fromJunction="gneJ79" toJunction="gneJ93"/>
        <trip id="262" depart="132.75" fromJunction="gneJ110" toJunction="gneJ122"/>
        <trip id="263" depart="133.26" fromJunction="gneJ91" toJunction="gneJ107"/>
        <trip id="264" depart="133.76" fromJunction="gneJ106" toJunction="gneJ101"/>
        <trip id="265" depart="134.27" fromJunction="gneJ80" toJunction="gneJ100"/>
        <trip id="266" depart="134.78" fromJunction="gneJ104" toJunction="gneJ108"/>
        <trip id="267" depart="135.29" fromJunction="gneJ76" toJunction="gneJ108"/>
        <trip id="268" depart="135.79" fromJunction="gneJ78" toJunction="gneJ88"/>
        <trip id="269" depart="136.30" fromJunction="gneJ84" toJunction="gneJ92"/>
        <trip id="270" depart="136.81" fromJunction="gneJ95" toJunction="gneJ94"/>
        <trip id="271" depart="137.31" fromJunction="gneJ105" toJunction="gneJ93"/>
        <trip id="272" depart="137.82" fromJunction="gneJ109" toJunction="gneJ99"/>
        <trip id="273" depart="138.33" fromJunction="gneJ91" toJunction="gneJ96"/>
        <trip id="274" depart="138.83" fromJunction="gneJ91" toJunction="gneJ100"/>
        <trip id="275" depart="139.34" fromJunction="gneJ110" toJunction="gneJ92"/>
        <trip id="276" depart="139.85" fromJunction="gneJ88" toJunction="gneJ99"/>
        <trip id="277" depart="140.35" fromJunction="gneJ102" toJunction="gneJ75"/>
        <trip id="278" depart="140.86" fromJunction="gneJ102" toJunction="gneJ110"/>
        <trip id="279" depart="141.37" fromJunction="gneJ90" toJunction="gneJ109"/>
        <trip id="280" depart="141.87" fromJunction="gneJ110" toJunction="gneJ98"/>
        <trip id="281" depart="142.38" fromJunction="gneJ90" toJunction="gneJ106"/>
        <trip id="282" depart="142.89" fromJunction="gneJ75" toJunction="gneJ79"/>
        <trip id="283" depart="143.39" fromJunction="gneJ100" toJunction="gneJ102"/>
        <trip id="284" depart="143.90" fromJunction="gneJ87" toJunction="gneJ90"/>
        <trip id="285" depart="144.41" fromJunction="gneJ99" toJunction="gneJ92"/>
        <trip id="286" depart="144.91" fromJunction="gneJ93" toJunction="gneJ82"/>
        <trip id="287" depart="145.42" fromJunction="gneJ79" toJunction="gneJ77"/>
        <trip id="288" depart="145.93" fromJunction="gneJ105" toJunction="gneJ106"/>
        <trip id="289" depart="146.43" fromJunction="gneJ77" toJunction="gneJ117"/>
        <trip id="290" depart="146.94" fromJunction="gneJ75" toJunction="gneJ102"/>
        <trip id="291" depart="147.45" fromJunction="gneJ93" toJunction="gneJ107"/>
        <trip id="292" depart="147.95" fromJunction="gneJ77" toJunction="gneJ96"/>
        <trip id="293" depart="148.46" fromJunction="gneJ103" toJunction="gneJ75"/>
        <trip id="294" depart="148.97" fromJunction="gneJ89" toJunction="gneJ78"/>
        <trip id="295" depart="149.47" fromJunction="gneJ85" toJunction="gneJ90"/>
        <trip id="296" depart="149.98" fromJunction="gneJ87" toJunction="gneJ98"/>
        <trip id="297" depart="150.49" fromJunction="gneJ95" toJunction="gneJ87"/>
        <trip id="298" depart="150.99" fromJunction="gneJ84" toJunction="gneJ80"/>
        <trip id="299" depart="151.50" fromJunction="gneJ76" toJunction="gneJ81"/>
        <trip id="300" depart="152.01" fromJunction="gneJ83" toJunction="gneJ97"/>
        <trip id="301" depart="152.51" fromJunction="gneJ87" toJunction="gneJ94"/>
        <trip id="302" depart="153.02" fromJunction="gneJ90" toJunction="gneJ86"/>
        <trip id="303" depart="153.53" fromJunction="gneJ85" toJunction="gneJ76"/>
        <trip id="304" depart="154.03" fromJunction="gneJ98" toJunction="gneJ86"/>
        <trip id="305" depart="154.54" fromJunction="gneJ88" toJunction="gneJ114"/>
        <trip id="306" depart="155.05" fromJunction="gneJ107" toJunction="gneJ84"/>
        <trip id="307" depart="155.55" fromJunction="gneJ89" toJunction="gneJ117"/>
        <trip id="308" depart="156.06" fromJunction="gneJ88" toJunction="gneJ114"/>
        <trip id="309" depart="156.57" fromJunction="gneJ110" toJunction="gneJ95"/>
        <trip id="310" depart="157.07" fromJunction="gneJ93" toJunction="gneJ99"/>
        <trip id="311" depart="157.58" fromJunction="gneJ110" toJunction="gneJ81"/>
        <trip id="312" depart="158.09" fromJunction="gneJ81" toJunction="gneJ93"/>
        <trip id="313" depart="158.59" fromJunction="gneJ87" toJunction="gneJ90"/>
        <trip id="314" depart="159.10" fromJunction="gneJ105" toJunction="gneJ115"/>
        <trip id="315" depart="159.61" fromJunction="gneJ100" toJunction="gneJ103"/>
        <trip id="316" depart="160.11" fromJunction="gneJ84" toJunction="gneJ83"/>
        <trip id="317" depart="160.62" fromJunction="gneJ96" toJunction="gneJ108"/>
        <trip id="318" depart="161.13" fromJunction="gneJ82" toJunction="gneJ109"/>
        <trip id="319" depart="161.63" fromJunction="gneJ78" toJunction="gneJ79"/>
        <trip id="320" depart="162.14" fromJunction="gneJ88" toJunction="gneJ114"/>
        <trip id="321" depart="162.65" fromJunction="gneJ110" toJunction="gneJ107"/>
        <trip id="322" depart="163.15" fromJunction="gneJ102" toJunction="gneJ101"/>
        <trip id="323" depart="163.66" fromJunction="gneJ77" toJunction="gneJ95"/>
        <trip id="324" depart="164.17" fromJunction="gneJ84" toJunction="gneJ117"/>
        <trip id="325" depart="164.67" fromJunction="gneJ101" toJunction="gneJ104"/>
        <trip id="326" depart="165.18" fromJunction="gneJ96" toJunction="gneJ94"/>
        <trip id="327" depart="165.69" fromJunction="gneJ103" toJunction="gneJ75"/>
        <trip id="328" depart="166.19" fromJunction="gneJ92" toJunction="gneJ109"/>
        <trip id="329" depart="166.70" fromJunction="gneJ101" toJunction="gneJ99"/>
        <trip id="330" depart="167.21" fromJunction="gneJ100" toJunction="gneJ83"/>
        <trip id="331" depart="167.71" fromJunction="gneJ110" toJunction="gneJ108"/>
        <trip id="332" depart="168.22" fromJunction="gneJ80" toJunction="gneJ94"/>
        <trip id="333" depart="168.73" fromJunction="gneJ94" toJunction="gneJ105"/>
        <trip id="334" depart="169.23" fromJunction="gneJ97" toJunction="gneJ96"/>
        <trip id="335" depart="169.74" fromJunction="gneJ99" toJunction="gneJ95"/>
        <trip id="336" depart="170.25" fromJunction="gneJ101" toJunction="gneJ103"/>
        <trip id="337" depart="170.75" fromJunction="gneJ79" toJunction="gneJ76"/>
        <trip id="338" depart="171.26" fromJunction="gneJ82" toJunction="gneJ89"/>
        <trip id="339" depart="171.77" fromJunction="gneJ80" toJunction="gneJ102"/>
        <trip id="340" depart="172.27" fromJunction="gneJ76" toJunction="gneJ77"/>
        <trip id="341" depart="172.78" fromJunction="gneJ106" toJunction="gneJ109"/>
        <trip id="342" depart="173.29" fromJunction="gneJ91" toJunction="gneJ106"/>
        <trip id="343" depart="173.79" fromJunction="gneJ80" toJunction="gneJ106"/>
        <trip id="344" depart="174.30" fromJunction="gneJ97" toJunction="gneJ75"/>
        <trip id="345" depart="174.81" fromJunction="gneJ108" toJunction="gneJ115"/>
        <trip id="346" depart="175.31" fromJunction="gneJ87" toJunction="gneJ92"/>
        <trip id="347" depart="175.82" fromJunction="gneJ77" toJunction="gneJ104"/>
        <trip id="348" depart="176.33" fromJunction="gneJ80" toJunction="gneJ90"/>
        <trip id="349" depart="176.83" fromJunction="gneJ84" toJunction="gneJ83"/>
        <trip id="350" depart="177.34" fromJunction="gneJ91" toJunction="gneJ114"/>
        <trip id="351" depart="177.85" fromJunction="gneJ88" toJunction="gneJ78"/>
        <trip id="352" depart="178.35" fromJunction="gneJ80" toJunction="gneJ100"/>
        <trip id="353" depart="178.86" fromJunction="gneJ94" toJunction="gneJ103"/>
        <trip id="354" depart="179.37" fromJunction="gneJ91" toJunction="gneJ97"/>
        <trip id="355" depart="179.87" fromJunction="gneJ77" toJunction="gneJ83"/>
        <trip id="356" depart="180.38" fromJunction="gneJ98" toJunction="gneJ96"/>
        <trip id="357" depart="180.89" fromJunction="gneJ94" toJunction="gneJ99"/>
        <trip id="358" depart="181.39" fromJunction="gneJ99" toJunction="gneJ107"/>