<?xml version="1.0" encoding="UTF-8"?>

<!-- generated on 2022-04-29 15:40:58 by Eclipse SUMO duarouter Version 1.10.0
<configuration xmlns:xsi="http://www.w3.org/2001/XMLSchema-instance" xsi:noNamespaceSchemaLocation="http://sumo.dlr.de/xsd/duarouterConfiguration.xsd">

    <input>
        <net-file value="9/../../bath.net.xml"/>
        <route-files value="9/../8\sampledRoutes_008.rou.alt.xml"/>
        <weight-files value="9/..\8\dump_008_900.xml"/>
    </input>

    <output>
        <output-file value="9/sampledRoutes_009.rou.xml"/>
        <alternatives-output value="9/sampledRoutes_009.rou.alt.xml"/>
        <exit-times value="false"/>
    </output>

    <processing>
        <max-alternatives value="5"/>
        <with-taz value="false"/>
        <weights.expand value="true"/>
        <routing-algorithm value="dijkstra"/>
        <gawron.beta value="0.9"/>
        <gawron.a value="0.5"/>
        <keep-all-routes value="false"/>
        <logit.beta value="0.15"/>
        <logit.gamma value="1"/>
    </processing>

    <time>
        <begin value="0"/>
    </time>

    <report>
        <verbose value="false"/>
        <no-warnings value="false"/>
        <ignore-errors value="false"/>
        <no-step-log value="true"/>
    </report>

    <random_number>
        <random value="false"/>
    </random_number>

</configuration>
-->

<routes xmlns:xsi="http://www.w3.org/2001/XMLSchema-instance" xsi:noNamespaceSchemaLocation="http://sumo.dlr.de/xsd/routes_file.xsd">
    <vehicle id="0" depart="0.00">
        <route edges="55290798#0 210#1 30992002 773250139#1 3086258 3086257#0 39352131#0 3086250 4321650 167283#0 -55602323#6 -57962409"/>
    </vehicle>
    <vehicle id="1" depart="0.60">
        <route edges="37777462 55290809#0 3441738#0 55290801 -2527#2 4644987#0 2536#0 39333941#2 127632770#0 -167257#1 3120967#0"/>
    </vehicle>
    <vehicle id="2" depart="1.21">
        <route edges="30992002 3126772#0 3126773 39333941#2 127632770#0 167257#2 884727976#0 546225667#0 115952099#2 -30906#3 38619223#0 133875255 133875259#0 133875244#0 133875232#0 3381569#0 133875226#0 133875226#1 133875249#0 180869463#0 133875229 133875236#0 133875236#2"/>
    </vehicle>
    <vehicle id="3" depart="1.81">
        <route edges="-48586336#2 240290973#0 -58295596#1 -192674701 -279357279#1 326284091 984881212 54401067 gneE72 -133875260#3 -133875262#1 -3025839#7 -447465369 -2745#1 -3609801#3 2743#0"/>
    </vehicle>
    <vehicle id="4" depart="2.42">
        <route edges="-133875245#2 -133875236#3 -133875236#1 -133875229 -180869463#1 -133875249#2 -133875226#2 -133875226#0 -3381569#3 94820#0 133875252#0 133875252#1 133875252#3 133875256#0 133875255 4338449#0 4357619 133875223#0 133875223#1 133875223#3 gneE82 4479202#0"/>
    </vehicle>
    <vehicle id="5" depart="3.02">
        <route edges="38963969#1 133875178#0 133875177 133875176 133875182#3 -48586336#2 240290973#0 -58295596#1 -192674701 -279357279#1 326284091 984881212 54401067 gneE73 gneE74 gneE75"/>
    </vehicle>
    <vehicle id="6" depart="3.62">
        <route edges="-133875245#2 -133875236#3 -133875236#1 -133875229 -180869463#1 -133875249#2 -133875226#2 -133875226#0 -3381569#3 94820#0 133875252#0 133875252#1 133875252#3 133875256#0 133875255 4338449#0 4357619 133875223#0 133875223#1 133875223#3 gneE82 133875223#6 133875223#11 133875223#17 984881209 55290796 4346053 3027099#0 505404870#0 351684045#0 133875181#0 351684503 3025859#0 3025859#5 3025859#6 3025859#8 133875261#0 133875262#0 133875260#0 48586818 gneE74 54401064 192674702#0 279357279#1 192674701 58295596#0 -240290973#1 3024960#0 3024961 -192674402#1 -959553052#4 -959553052#2 -34784840#1 39183706 192668650#2 192668650#3 gneE13 gneE11 3292445#0.4 3292445#3 -127654225#19"/>
    </vehicle>
    <vehicle id="7" depart="4.23">
        <route edges="3441624#0 37728001#0 55290801 4236439#0 4236439#1 3441067#0 55296262 4479201#0 4346053 3027099#0 505404870#0 351684045#0 133875181#0 351684503 3025859#0"/>
    </vehicle>
    <vehicle id="8" depart="4.83">
        <route edges="5191097#2 141841564#7 39654987#0 133875252#3 133875256#0 133875255 4338449#0 4357619 133875223#0 133875223#1 133875223#3 gneE82 133875223#6 133875223#11 133875223#17 984881209 37777462 55290809#0 3441738#0 55290801 4236439#0 4236439#1 3441067#0 -203240967#2 -198245314#0 3609801#1 -39348547#2 39348546#0 52573118#0 2755#0 48207220 52573120 55290813#0 -4279571 -175773133 683583893 115353253#0 3024958#0 -677916434"/>
    </vehicle>
    <vehicle id="9" depart="5.44">
        <route edges="4045612#0 4045612#1 3091989#1 -2524 30991997#1 1040747475 55296264#1 55290812#0 48207221 2742 52573120 52030081 52030084#0 38964070#0 50842685#0"/>
    </vehicle>
    <vehicle id="10" depart="6.04">
        <route edges="-133875236#3 -133875236#1 -133875229 -180869463#1 -133875249#2 -133875226#2 -133875226#0 -3381569#3 94820#0 133875252#0 133875252#1 133875252#3 133875256#0 133875255 4338449#0 4357619 133875223#0 133875223#1 133875223#3 gneE82 133875223#6 133875223#11 133875223#17 984881209 55290796 4346053 3027099#0 505404870#0 351684045#0 133875181#0 351684503 3025859#0 3025859#5 3026118#0"/>
    </vehicle>
    <vehicle id="11" depart="6.65">
        <route edges="-959553052#4 -3025482#4 3025482#2 959553052#3 192674402#0 192674402#2 133875178#0 133875177 133875176 133875182#3 -48586336#2 240290973#0 -58295596#1 -192674701 -279357279#1 326284091 984881212 54401067 gneE72 -133875260#3 -133875262#1 -133875261#1 -3025859#8 -3025859#7 -3025859#5 -3025859#3 -351684503 -351685326 -55290805 34243632#0 133875195#0 133875195#3 55290800 55290807 55290799 -133875223#19 -133875223#16 -133875223#10 gneE81 -133875223#4 -133875223#1 -133875223#0 -4357619 4340722#0 133875244#0 4338446#0 133875252#0 133875252#1 133875252#3 133875256#0 133875255 4338449#0"/>
    </vehicle>
    <vehicle id="12" depart="7.25">
        <route edges="3024961 -192674402#1 -959553052#4 -959553052#2 -34784840#1 39183706 192668650#2 192668650#3 gneE13 gneE11 3292445#0.4 3292445#3 209#0 2523#0 2524 39340468#0 39340468#1 4271802"/>
    </vehicle>
    <vehicle id="13" depart="7.85">
        <route edges="-3292445#2 gneE12 -192668650#4 -192668650#2 -192668650#1 192668649#1 192668647 959553052#0 -3025482#4"/>
    </vehicle>
    <vehicle id="14" depart="8.46">
        <route edges="54401052#1 54401052#2 414017617 683648842#0 683648842#1 3024957 175773133 3024962 48207559 52030084#0 2765 52573118#0 2755#0 52573119 -55290812#1 -2756#1 2757#0 2757#1 1025513686#0 1025513686#1 188924487#0 209#0 2523#0 2524 39340468#0 39340468#1 4271802"/>
    </vehicle>
    <vehicle id="15" depart="9.06">
        <route edges="-gneE28 -gneE45 -gneE43 -gneE26 -gneE25 404611919#0 gneE51 -gneE52 -133875245#3 -133875245#2 -133875236#3 -133875236#1 -133875229 -180869463#1 -133875249#2 -133875226#2 -133875226#0 -3381569#3 94820#0 133875252#0 133875252#1 133875252#3 4338448#0 48665005 115952095#0 3441624#0 37728001#0 55290801 4236439#0 4236439#1 3441067#0 -203240967#2 -198245314#0 3609801#1 -39348547#2 50842685#0 -26738340#3"/>
    </vehicle>
    <vehicle id="16" depart="9.67">
        <route edges="3292445#3 209#0 2523#0"/>
    </vehicle>
    <vehicle id="17" depart="10.27">
        <route edges="-133875229 -180869463#1 -133875249#2 -133875226#2 -133875226#0 -3381569#3 94820#0 133875252#0 133875252#1 133875252#3 4338448#0 48665005 115952095#0 -546225667#1"/>
    </vehicle>
    <vehicle id="18" depart="10.87">
        <route edges="4644987#0 55296249#0 26753071 167208#2 822839889 57962409 4231695#0 4231695#3"/>
    </vehicle>
    <vehicle id="19" depart="11.48">
        <route edges="39340468#0 39340468#1 4271799#1 -26637310#2 3126773 39333941#2 39333941#4 167257#0 167257#2 884727976#0 546225667#0 115952099#2 -30906#3 38619223#0 133875255 133875259#0 133875244#0 133875232#0 3381569#0 133875226#0 133875226#1 133875249#0 180869463#0 133875229"/>
    </vehicle>
    <vehicle id="20" depart="12.08">
        <route edges="3086259#0 3086261 3091989#1 -2524 30991997#1 1040747475 55296264#1 55290812#0 48207221 2742 52573120 55290813#0 -4279571 -175773133 683583893 115353253#0 115353253#1 48206750 -54401052#2 -3024771 -2960931#0 326284103 54401064 192674702#0"/>
    </vehicle>
    <vehicle id="21" depart="12.69">
        <route edges="209#0 2523#0 30991997#1 1040747475 55296264#1 55290812#0"/>
    </vehicle>
    <vehicle id="22" depart="13.29">
        <route edges="52573118#0"/>
    </vehicle>
    <vehicle id="23" depart="13.89">
        <route edges="133875182#3 -48586336#2 240290973#0 -58295596#1 -192674701 -279357279#1 326284091 984881212 54401067 gneE72 -133875260#3 -133875262#1 -3025839#7"/>
    </vehicle>
    <vehicle id="24" depart="14.50">
        <route edges="3024957 175773133 3024962 48207559 52030084#0 2765 52573118#0 2755#0 52573119 -55290812#1 -2756#1 2757#0 2757#1 1025513686#0 1025513686#1 188924487#0 209#0 2523#0 2524 39340468#0 39340468#1 4271799#1 -26637310#2 3126773 39333941#2 127632770#0 167257#2 884727976#0 546225667#0 115952099#2"/>
    </vehicle>
    <vehicle id="25" depart="15.10">
        <route edges="167283#0 884727976#0 546225667#0 3441624#0 37728001#0 55290801 4236439#0 4236439#1 3441067#0 55296262 4479201#0 4346053 3027099#0 505404870#0 351684045#0 -55290805 34243632#0 133875195#0"/>
    </vehicle>
    <vehicle id="26" depart="15.71">
        <route edges="-2756#1 2757#0 2757#1 1025513686#0 1025513686#1 188924487#0 209#0 55290798#0 210#1 30992002 -3120967#1 167257#0 167257#2 884727976#0 546225667#0 3441624#0 167160#0"/>
    </vehicle>
    <vehicle id="27" depart="16.31">
        <route edges="3441067#0 -203240967#2 -198245314#0 3609801#1 -39348547#2 39348546#0 52573118#0 2755#0 52573119 -55290812#1 -2756#1 2757#0 2757#1 1025513686#0 1025513686#1 188924487#0 -3292445#8 -3292445#2 gneE12 gneE13"/>
    </vehicle>
    <vehicle id="28" depart="16.92">
        <route edges="351684045#0 133875181#0 351684503 3025859#0 3025859#5 3025859#6 3025859#8 133875261#0 -3025839#7 -447465369 -2745#1 -39348547#2 39348546#0 52573118#0 2755#0 52573119 -55290812#1 -2756#1 2757#0 2757#1 1025513686#0 1025513686#1"/>
    </vehicle>
    <vehicle id="29" depart="17.52">
        <route edges="55296264#1 55290812#0 48207221 2742 52573120 52030081 52030084#0 38964070#0 39348547#1 -3609801#3 2743#0"/>
    </vehicle>
    <vehicle id="30" depart="18.12">
        <route edges="3086259#0 3086261 3091989#1 -2524 30991997#1 1040747475 55296264#1 55290812#0 48207221 2742 52573120 55290813#0 -4279571 -175773133 683583893 115353253#0 3024958#0"/>
    </vehicle>
    <vehicle id="31" depart="18.73">
        <route edges="39333941#2 39333941#4 3120967#0 773250139#1 331545472#2 -210#1 -55290798#2 -209#3 -3292445#8 -3292445#2 gneE12 -192668650#4 -192668650#2 -192668650#1 192668649#1 192668647"/>
    </vehicle>
    <vehicle id="32" depart="19.33">
        <route edges="505404870#0 351684045#0 133875181#0 351684503 3025859#0 3025859#5 3025859#6 3025859#8 133875261#0 -3025839#7 -447465369 -2745#1 -39348547#2 39348546#0 52573118#0 2755#0 48207220"/>
    </vehicle>
    <vehicle id="33" depart="19.94">
        <route edges="39333941#2 127632770#0 -167257#1 8769305 -4231711 -3086258 331545472#2 -210#1 -55290798#2 -209#3 -3292445#8 -3292445#2 gneE12 -192668650#4 -192668650#2 -192668650#1 192668649#1 192668647"/>
    </vehicle>
    <vehicle id="34" depart="20.54">
        <route edges="133875174 38963969#1 -192674402#2 -192674402#1 -959553052#4 -959553052#2 -34784840#1 39183706 192668650#2 192668650#3"/>
    </vehicle>
    <vehicle id="35" depart="21.14">
        <route edges="-133875236#3 -133875236#1 -133875229 -180869463#1 -133875249#2 -133875226#2 -133875226#0 -3381569#3 94820#0 133875252#0 133875252#1 133875252#3 4338448#0 48665005 115952095#0 -546225667#1 -884727976#2 -8769288#1 -167257#1"/>
    </vehicle>
    <vehicle id="36" depart="21.75">
        <route edges="331545472#2 30992002 773250139#1 3086258 3086257#0 39352131#0 3086250 4321650 167283#0 884727976#0 546225667#0 3441624#0 37728001#0 55290801 4236439#0 4236439#1 3441067#0"/>
    </vehicle>
    <vehicle id="37" depart="22.35">
        <route edges="30991997#1 1040747475 55296264#1 55290812#0 48207221 2742 52573120 52030081"/>
    </vehicle>
    <vehicle id="38" depart="22.96">
        <route edges="-3609801#3 2748#0 -37777243#4 37777243#0 198245314#1 55296262 197960551 55290809#0 3441738#0 55290801 -2527#2 4644987#0 55296249#0 26753071 167208#2 822839889 57962409 4231695#0 4231695#3"/>
    </vehicle>
    <vehicle id="39" depart="23.56">
        <route edges="50842685#1 -39348547#2 39348547#1 -3609801#3 2748#0 -37777243#4 37777243#0 198245314#1 55296262 197960551 55290809#0 3441738#0 55290801 -2527#2 4644987#0 55296249#0 26753071 167208#2 822839889 57962409 4231695#0 4231695#3"/>
    </vehicle>
    <vehicle id="40" depart="24.17">
        <route edges="gneE72 -133875260#3 -133875262#1 -133875261#1 -3025859#8 -3025859#7 -3025859#5 -3025859#3 -351684503 -351685326 -55290805 34243632#0 133875195#0 133875195#3 55290800 55290807 55290799 -133875223#19 -133875223#16 -133875223#10 gneE81 -133875223#4 -133875223#1 -133875223#0"/>
    </vehicle>
    <vehicle id="41" depart="24.77">
        <route edges="1025513686#1 2761 48173166#0 -899656225#3"/>
    </vehicle>
    <vehicle id="42" depart="25.37">
        <route edges="3024958#0 3024958#1 3025482#2 -959553052#2 -34784840#1 39183706 192668650#2 192668650#3 gneE13 3292444#0.4"/>
    </vehicle>
    <vehicle id="43" depart="25.98">
        <route edges="3025482#2 959553052#3 192674402#0 192674402#2 133875178#0 133875177 133875176 133875182#3 -48586336#2 240290973#0 -58295596#1 -192674701 -279357279#1 326284091 984881212 54401067 gneE72 -133875260#3 -133875262#1 -133875261#1 -3025859#8 -3025859#7 -3025859#5 -3025859#3 -351684503 -351685326 -55290805 34243632#0 133875195#0 133875195#3 55290800 55290807 55290799 -133875223#19 -133875223#16 -133875223#10 gneE81 -133875223#4 -133875223#1 -133875223#0 -4357619 4340722#0 133875244#0 4338446#0 133875252#0 7995397#0 -141841564#11 -5191097#3 -5191097#1"/>
    </vehicle>
    <vehicle id="44" depart="26.58">
        <route edges="-133875223#0 -4357619 4340722#0 133875244#0 133875232#0 3381569#0 133875226#0 133875226#1 133875249#0 180869463#0"/>
    </vehicle>
    <vehicle id="45" depart="27.19">
        <route edges="-3025859#3 -351684503 -351685326 -55290805 34243632#0 133875195#0 133875195#3 55290800 55290807 55290799 984881209 37777462 55290809#0 3441738#0 55290801 -2527#2 4644987#0 55296249#0 26753071"/>
    </vehicle>
    <vehicle id="46" depart="27.79">
        <route edges="167257#0 167257#2 -55602323#6"/>
    </vehicle>
    <vehicle id="47" depart="28.39">
        <route edges="-899645883#4 899645883#2 899645883#5 74552388#2 7985210#0 7985210#1 431533372#0 2756#0 55290812#0 48207221 2742 52573120 52030081 52030084#0 38964070#0 39348547#1 -3609801#3 2748#0 -37777243#4 37777243#0 198245314#1 55296262 4479201#0 4346053 55290810 55290800 55290807 55290799 -133875223#19 -133875223#16 -133875223#10 gneE81 -133875223#4 -133875223#1 133875223#1 133875223#3"/>
    </vehicle>
    <vehicle id="48" depart="29.00">
        <route edges="-3086257#1 -3086258 331545472#2 3086259#0 3086261 3091989#1 -2524 30991997#1 1040747475 55296264#1 55290812#0 48207221 2742 52573120 55290813#0 -4279571 -175773133 683583893 115353253#0 115353253#1 48206750 -54401052#2 -3024771 -2960931#0 326284103 54401064 192674702#0"/>
    </vehicle>
    <vehicle id="49" depart="29.60">
        <route edges="50842685#1 -39348547#2 39348546#0 52573118#0 2755#0 52573119 -55290812#1 -2756#1 2757#0"/>
    </vehicle>
    <vehicle id="50" depart="30.21">
        <route edges="48665005 115952095#0 -546225667#1 -884727976#2 -8769288#1 -167257#1 8769305 309842640#0 39352131#0 39352131#2 39352131#3 837572187#0 837572187#1"/>
    </vehicle>
    <vehicle id="51" depart="30.81">
        <route edges="3025859#5 3025859#6 3025859#8 133875261#0 -3025839#7 -447465369 -2745#1 -3609801#3 2748#0"/>
    </vehicle>
    <vehicle id="52" depart="31.41">
        <route edges="-192674701 -279357279#1 326284091 984881212 54401067 gneE72 -133875260#3 -133875262#1 -133875261#1 -3025859#8 -3025859#7 -3025859#5 -3025859#3 -351684503 -351685326 -55290805 34243632#0 133875195#0 133875195#3 55290800 55290807 55290799 -133875223#19 -133875223#16 -133875223#10 gneE81 -133875223#4 -133875223#1 -133875223#0 -4357619 4340722#0 133875244#0 133875232#0 3381569#0 133875226#0 133875226#1 133875249#0 180869463#0 133875229 133875236#0 133875236#2 133875245#0 133875245#3 gneE52 gneE52.55 -gneE51"/>
    </vehicle>
    <vehicle id="53" depart="32.02">
        <route edges="683648842#1 683648844 115353253#0 115353253#1 48206750 -54401052#2 -3024771 -2960931#0 326284103 54401064 984881214 984881212 54401067 gneE72 -133875260#3 -133875262#1 -133875261#1 -3025859#8 -3025859#7 -3025859#5 -3025859#3 -351684503 -351685326 -55290805 34243632#0 133875195#0 133875195#3 55290800 55290807 55290799 -133875223#19 -133875223#16 -133875223#10 gneE81 -133875223#4 -133875223#1 -133875223#0 -4357619 4340722#0 133875244#0 4338446#0"/>
    </vehicle>
    <vehicle id="54" depart="32.62">
        <route edges="3024962 48207559 52030084#0 2765 52573118#0 2755#0 52573119 -55290812#1 -2756#1 2757#0 2757#1 1025513686#0 1025513686#1 188924487#0 209#0 55290798#0 210#1 30992002 773250139#1 3086258 3086257#0 39352131#0 39352131#2 39352131#3 837572187#0 837572187#1 837573373#0"/>
    </vehicle>
    <vehicle id="55" depart="33.23">
        <route edges="167208#2 822839889 57962409 55602323#3 -8769288#1 -167257#1 8769305 309842640#0 39352131#0 39352131#2 39352131#3 837572187#0 3600469#0"/>
    </vehicle>
    <vehicle id="56" depart="33.83">
        <route edges="444272568#1 -gneE28 -gneE45 -gneE43 -gneE26 -gneE25 404611919#0 gneE51 -gneE52 -133875245#3 -133875245#2 -133875236#3 -133875236#1 -133875229 -180869463#1 -133875249#2 -133875226#2 -133875226#0 -3381569#3 94820#0 133875252#0 133875252#1 133875252#3 133875256#0 133875255 4338449#0 4357619 133875223#0 133875223#1 133875223#3 gneE82 133875223#6 133875223#11 133875223#17 984881209 55290796 4346053 3027099#0 505404870#0 351684045#0 133875181#0 351684503 3025859#0"/>
    </vehicle>
    <vehicle id="57" depart="34.44">
        <route edges="-133875223#1 133875223#1 133875223#3 gneE82 133875223#6 133875223#11 133875223#17 984881209 37777462 55290809#0 3441738#0 55290801 4236439#0 4236439#1 3441067#0 -203240967#2 -198245314#0 3609801#1 -39348547#2 39348546#0 52573118#0 2755#0 52573119 -55290812#1 -2756#1 2757#0 2757#1"/>
    </vehicle>
    <vehicle id="58" depart="35.04">
        <route edges="3026116#3 3025859#5 3025859#6 3025859#8 133875261#0 -3025839#7 -447465369 -2745#1 -39348547#2 39348546#0 52573118#0 2755#0 48207220 52573120 55290813#0 -4279571 -175773133 683583893 115353253#0 115353253#1 683648843 683648842#0 683648842#1 3024957 175773133"/>
    </vehicle>
    <vehicle id="59" depart="35.64">
        <route edges="3026119#0 3026120 -351684503 -351685326 -55290805 34243632#0 133875195#0 133875195#3 55290800 55290807 55290799 -133875223#19 -133875223#16 -133875223#10 gneE81 -133875223#4 -133875223#1 -133875223#0 -4357619 4340722#0 133875244#0 133875232#0 3381569#0 133875226#0 133875226#1 133875249#0 180869463#0 133875229 746445108"/>
    </vehicle>
    <vehicle id="60" depart="36.25">
        <route edges="2534#0 48207221 2742 52573120 52030081 52030084#0 38964070#0 50842685#0 50842685#1 2745#0 192671933#0 3025839#0 -133875261#1 -3025859#8 -3025859#7 -3025859#5 -3025859#3"/>
    </vehicle>
    <vehicle id="61" depart="36.85">
        <route edges="gneE53 -gneE52 -133875245#3 -133875245#2 -133875236#3 -133875236#1 -133875229 -180869463#1 -133875249#2 -133875226#2 -133875226#0 -3381569#3 94820#0 133875252#0 133875252#1 133875252#3 4338448#0 48665005 115952095#0 3441624#0 37728001#0 55290801 4236439#0 4236439#1 3441067#0 -203240967#2 -198245314#0 3609801#1 -39348547#2 39348547#1 2745#0"/>
    </vehicle>
    <vehicle id="62" depart="37.46">
        <route edges="55290807 55290799 984881209 55290796 4346053 3027099#0 505404870#0 351684045#0 133875181#0 351684503 3025859#0 3025859#5 3025859#6 3025859#8 133875261#0 133875262#0 133875260#0 48586818 gneE74 54401064 192674702#0 279357279#1 192674701 58295596#0 -240290973#1 48586336#1 133875263 38963969#0 38963969#1 -192674402#2 -192674402#1 -959553052#4 -959553052#2 -34784840#1 39183706 192668650#2"/>
    </vehicle>
    <vehicle id="63" depart="38.06">
        <route edges="-3086245#1 -3086247 -39352131#2 3086250 -3086252#1 -32751327 309842640#0 39352131#0 39352131#2 39352131#3 837572187#0 837572187#1"/>
    </vehicle>
    <vehicle id="64" depart="38.66">
        <route edges="gneE82 133875223#6 133875223#11 133875223#17 984881209 37777462 55290809#0 3441738#0 55290801 4236439#0 4236439#1 3441067#0"/>
    </vehicle>
    <vehicle id="65" depart="39.27">
        <route edges="-175773133 683583893 115353253#0 115353253#1 48206750 -54401052#2 -3024771 -2960931#0 326284103 54401064 984881214 984881212"/>
    </vehicle>
    <vehicle id="66" depart="39.87">
        <route edges="-8769288#1 -167257#1 3120967#0 773250139#1 331545472#2 -210#1 -55290798#2 2523#0 30991997#1 1040747475 55296264#1 55290812#0 48207221 2742 52573120 55290813#0 -4279571 -175773133 683583893 115353253#0 115353253#1 48206750 -54401052#2 -3024771"/>
    </vehicle>
    <vehicle id="67" depart="40.48">
        <route edges="192668649#1 192668647 959553052#0 959553052#3 192674402#0 192674402#2 133875178#0 133875177 133875176 133875182#3 -48586336#2 240290973#0 -58295596#1 -192674701 -279357279#1 326284091 984881212 54401067 gneE73 gneE74"/>
    </vehicle>
    <vehicle id="68" depart="41.08">
        <route edges="3025859#0 3025859#5 3025859#6 3025859#8 133875261#0 -3025839#7 -447465369 -2745#1 -39348547#2 39348546#0 52573118#0 2755#0 52573119 -55290812#1 -2756#1 2757#0 2757#1 1025513686#0 1025513686#1 188924487#0 -3292445#8"/>
    </vehicle>
    <vehicle id="69" depart="41.68">
        <route edges="-3024959#0 -50600070#4 -3024958#0 115353253#1 48206750 -54401052#2 -3024771 -2960931#0 326284103 54401064 984881214 984881212 54401067 gneE72 -133875260#3 -133875262#1 -133875261#1 -3025859#8 -3025859#7 -3025859#5 -3025859#3 -351684503 -351685326 -55290805 34243632#0 133875195#0 133875195#3 55290800 55290807 55290799 984881209 55290796"/>
    </vehicle>
    <vehicle id="70" depart="42.29">
        <route edges="-3086247 -39352131#2 -39352131#1 -3086257#1 -3086258 331545472#2 3086259#0 3086261 3091989#1 -2524 30991997#1 1040747475 55296264#1 55290812#0 48207221 2742 52573120 55290813#0 -4279571 -175773133 683583893 115353253#0 115353253#1 48206750 -54401052#2 -54401052#1 -54401052#0"/>
    </vehicle>
    <vehicle id="71" depart="42.89">
        <route edges="-133875262#1 -3025839#7 -447465369 -2745#1 -39348547#2 39348546#0 52573118#0 2755#0 52573119 -55290812#1 -2756#1 2757#0 2757#1 1025513686#0 1025513686#1 188924487#0 209#0 55290798#0 210#1 3086259#0 3086261 3091989#1 39340468#0 39340468#1"/>
    </vehicle>
    <vehicle id="72" depart="43.50">
        <route edges="210#1 3086259#0 3086261 3091989#1 -2524 30991997#1 1040747475 55296264#1 55290812#0 48207221 2742 52573120 52030081 52030084#0 38964070#0 39348547#1 -3609801#3 2743#0"/>
    </vehicle>
    <vehicle id="73" depart="44.10">
        <route edges="-133875249#2 -133875226#2 -133875226#0 -3381569#3 94820#0 133875252#0 133875252#1 133875252#3 133875256#0 133875255 4338449#0 4357619 133875223#0 133875223#1 133875223#3 gneE82 133875223#6 133875223#11 133875223#17 984881209 37777462 55290809#0 3441738#0 55290801 4236439#0 4236439#1 3441067#0 -203240967#2 -198245314#0 3609801#1 -39348547#2 39348546#0 52573118#0 2755#0 52573119 -55290812#1 -2756#1 2757#0 2757#1 1025513686#0 1025513686#1 2761 48173166#0 -899656225#3 -74552388#1 -899645883#4 3292451#0"/>
    </vehicle>
    <vehicle id="74" depart="44.71">
        <route edges="3292445#3 209#0 55290798#0 210#1 30992002 -3120967#1 167257#0 167257#2 884727976#0 546225667#0"/>
    </vehicle>
    <vehicle id="75" depart="45.31">
        <route edges="-34784840#1 39183706 192668650#2 192668650#3 gneE13 gneE11 3292445#0.4 3292445#3 209#0 2523#0 2524 39340468#0 39340468#1 4271799#1 -26637310#2 3126773 39333941#2 127632770#0 167257#2 884727976#0 546225667#0 115952099#2 -30906#3 38619223#0 133875255 133875259#0 133875244#0 4338446#0 133875252#0 7995397#0"/>
    </vehicle>
    <vehicle id="76" depart="45.91">
        <route edges="133875195#0 133875195#3 55290800 55290807 55290799 -133875223#19 -133875223#16 -133875223#10 gneE81 -133875223#4 -133875223#1 -133875223#0 -4357619 4340722#0 133875244#0 133875232#0 3381569#0 133875226#0 133875226#1 133875249#0"/>
    </vehicle>
    <vehicle id="77" depart="46.52">
        <route edges="-133875261#1 -3025859#8 -3025859#7 -3025859#5 -3025859#3 -351684503 -351685326 -55290805 34243632#0 133875195#0 133875195#3 55290800 55290807 55290799 -133875223#19 -133875223#16 -133875223#10 gneE81 -133875223#4 -133875223#1 -133875223#0 -4357619 4340722#0 133875244#0 133875232#0 3381569#0 133875226#0 133875226#1 133875249#0 180869463#0 133875229 133875236#0 133875236#2 133875245#0 133875245#3 gneE52 gneE52.55 -gneE51 -404611919#1 gneE25 gneE26 gneE43 gneE45"/>
    </vehicle>
    <vehicle id="78" depart="47.12">
        <route edges="209#0 55290798#0 210#1 30992002 773250139#1 3086258 3086257#0 39352131#0 39352131#2 39352131#3 837572187#0 837572187#1 837573373#0 837573373#2 837573373#4 444272568#1 -gneE28 -gneE45 -gneE43 -gneE26 -gneE25 404611919#0 gneE51 -gneE52 -133875245#3 -133875245#2 -133875236#3 133875236#2 133875245#0 133875245#3 gneE52 gneE52.55"/>
    </vehicle>
    <vehicle id="79" depart="47.73">
        <route edges="-3381569#3 94820#0 133875252#0 133875252#1 133875252#3 4338448#0 48665005 115952095#0 -546225667#1 -884727976#2 -8769288#1 -167257#1 8769305"/>
    </vehicle>
    <vehicle id="80" depart="48.33">
        <route edges="-3086247 -39352131#2 3086250 -3086252#1 -32751327 309842640#0 39352131#0 39352131#2 39352131#3 837572187#0 837572187#1 837573373#0 837573373#2 837573373#4 444272568#1 -gneE28 -gneE45 -gneE43 -gneE26"/>
    </vehicle>
    <vehicle id="81" depart="48.93">
        <route edges="-3025859#7"/>
    </vehicle>
    <vehicle id="82" depart="49.54">
        <route edges="-gneE45 -gneE43 -gneE26 -gneE25 404611919#0 gneE51 -gneE52 -133875245#3 -133875245#2 -133875236#3 -133875236#1 -133875229 -180869463#1 -133875249#2 -133875226#2 -133875226#0 -3381569#3 94820#0 133875252#0 133875252#1 133875252#3 4338448#0 48665005 115952095#0 3441624#0 37728001#0 55290801 4236439#0 4236439#1 3441067#0 -203240967#2 -198245314#0 3609801#1 -39348547#2 39348546#0 52573118#0 2755#0 48207220 52573120 55290813#0 -4279571 -175773133 683583893 115353253#0 115353253#1 48206750"/>
    </vehicle>
    <vehicle id="83" depart="50.14">
        <route edges="-gneE26 -gneE25 404611919#0 gneE51 -gneE52 -133875245#3 -133875245#2 -133875236#3 -133875236#1 -133875229 -180869463#1 -133875249#2 -133875226#2 -133875226#0 -3381569#3 94820#0 133875252#0 133875252#1 133875252#3 133875256#0 133875255 4338449#0 4357619 133875223#0 133875223#1 133875223#3 gneE82 133875223#6 133875223#11 133875223#17 984881209 37777462 55290809#0 3441738#0 55290801 4236439#0 4236439#1 3441067#0 -203240967#2 -198245314#0 3609801#1 -39348547#2 39348546#0 52573118#0 2755#0 48207220 52573120 55290813#0 -4279571 -175773133 683583893 115353253#0 3024958#0 3024958#1"/>
    </vehicle>
    <vehicle id="84" depart="50.75">
        <route edges="4271799#1 -26637310#2 3126773 39333941#2 39333941#4 8769305 309842640#0 39352131#0 39352131#2 39352131#3 837572187#0 837572187#1 837573373#0 837573373#2 39645355#0"/>
    </vehicle>
    <vehicle id="85" depart="51.35">
        <route edges="192668649#1 192668647 -3024965#8 3024965#3 -34784840#1 39183706 192668650#2 192668650#3 gneE13 gneE11 3292445#0.4 3292445#3 209#0 2523#0 2524 39340468#0 39340468#1 4271799#1 -26637310#2 3126773 39333941#2 127632770#0 -167257#1 167257#0"/>
    </vehicle>
    <vehicle id="86" depart="51.96">
        <route edges="-4231696#0 -4231695#2 55602323#3 884727976#0 546225667#0 115952099#2 -30906#3 38619223#0 133875255 4338449#0 4357619 133875223#0 133875223#1"/>
    </vehicle>
    <vehicle id="87" depart="52.56">
        <route edges="-133875226#0 -3381569#3 94820#0 133875252#0 133875252#1 133875252#3 4338448#0 48665005 115952095#0 3441624#0"/>
    </vehicle>
    <vehicle id="88" depart="53.16">
        <route edges="-gneE45 -gneE43 -gneE26 -gneE25 404611919#0 gneE51 -gneE52 -133875245#3 -133875245#2 -133875236#3 -133875236#1 -133875229 -180869463#1 -133875249#2 -133875226#2 -133875226#0 -3381569#3 94820#0 133875252#0 133875252#1 133875252#3 133875256#0 133875255 4338449#0 4357619 133875223#0 133875223#1 133875223#3 gneE82 133875223#6 133875223#11 133875223#17 984881209 55290796 4346053 3027099#0 505404870#0 351684045#0 133875181#0 351684503 3025859#0 3025859#5 3025859#6 3025859#8 133875261#0 133875262#0 133875260#0 48586818"/>
    </vehicle>
    <vehicle id="89" depart="53.77">
        <route edges="55602323#3 884727976#0 546225667#0"/>
    </vehicle>
    <vehicle id="90" depart="54.37">
        <route edges="-192674402#2 -192674402#1 -959553052#4 -959553052#2 -34784840#1 39183706 192668650#2 192668650#3 gneE13 gneE11 3292445#0.4 3292445#3 209#0 2523#0 2524 39340468#0 39340468#1 4271799#1 -26637310#2 3126773 39333941#2 127632770#0 167257#2 884727976#0"/>
    </vehicle>
    <vehicle id="91" depart="54.98">
        <route edges="899645883#2 899645883#5"/>
    </vehicle>
    <vehicle id="92" depart="55.58">
        <route edges="4338446#0 133875252#0 133875252#1 133875252#3 4338448#0 48665005 115952095#0 -546225667#1 -884727976#2 -8769288#1 -167257#1 8769305 -4231711 -3086258 331545472#2 3086259#0 3086261 3091989#1 -2524 30991997#1 1040747475 55296264#1 55290812#0 48207221 2742 52573120 55290813#0 -4279571 3024966#0 3024963#0"/>
    </vehicle>
    <vehicle id="93" depart="56.18">