<?xml version="1.0" encoding="UTF-8"?>
<!-- generated on 2022-05-11 15:50:25.961825 by $Id$ UNKNOWN
  options: -d scalingExperiment/scaledCountData.xml -r ltnRoutes.rou.xml -o scalingExperiment/scaledRoutes.rou.xml <doubleminus>optimize full
-->
<routes xmlns:xsi="http://www.w3.org/2001/XMLSchema-instance" xsi:noNamespaceSchemaLocation="http://sumo.dlr.de/xsd/routes_file.xsd">
<!-- begin="0.0" end="3600.0" -->
    <vehicle id="0" depart="0.00">
        <route edges="133875262#0 133875260#0 48586818 gneE74 54401064 984881214"/>
    </vehicle>
    <vehicle id="1" depart="0.84">
        <route edges="-959553052#2 -34784840#1 39183706 192668650#2 192668650#3 gneE107 gneE108 3292445#0.4 3292445#3 -127654225#19"/>
    </vehicle>
    <vehicle id="2" depart="1.68">
        <route edges="-133875223#19 -133875223#16 -133875223#10 gneE81 -133875223#4 -133875223#1 -133875223#0 -4357619 4340722#0 133875244#0 133875232#0 3381569#0 133875226#0 133875226#1 133875249#0 180869463#0 133875229 133875236#0 133875236#2 133875245#0 133875245#3 gneE52 gneE52.55 -gneE51 -404611919#1 gneE25 gneE26 gneE43 gneE45 gneE28 -444272568#2 -444272568#0 39645355#0 39645355#1"/>
    </vehicle>
    <vehicle id="3" depart="2.52">
        <route edges="48586837 3024770 54401052#2 414017617 683648842#0 683648842#1 3024957 175773133 3024962 48207559 52030084#0 38964070#0"/>
    </vehicle>
    <vehicle id="4" depart="3.37">
        <route edges="-3025859#8 -3025859#7 -3025859#5 -3025859#3 -351684503 -351685326 -55290805 34243632#0 133875195#0 133875195#3 55290800 3027057"/>
    </vehicle>
    <vehicle id="5" depart="4.21">
        <route edges="884727976#0 gneE92 115952099#2 -30906#3 38619223#0 133875255 4338449#0 4357619 133875223#0 133875223#1 133875223#3 gneE82 133875223#6 133875223#11 133875223#17 984881209 55290796 4346053 3027099#0 505404870#0 351684045#0 133875181#0 351684503 3025859#0 3025859#5 3025859#6 3025859#8 133875261#0 133875262#0 133875260#0 48586818 gneE74 54401064 192674702#0 279357279#1 192674701 58295596#0 gneE111 48586336#1 -192674402#2 -192674402#1 -959553052#4 -959553052#2 -34784840#1 39183706 192668650#2 192668650#3 gneE107 gneE108 3292445#0.4 3292445#3 209#0 55290798#0 210#1 30992002 -3120967#1 8769305 309842640#0 39352131#0 39352131#2 39352131#3 837572187#0 3600469#0"/>
    </vehicle>
    <vehicle id="6" depart="5.05">
        <route edges="2765 52573118#0 2755#0 48207220 52573120 55290813#0 -4279571 -175773133 683583893 115353253#0 115353253#1 48206750 -54401052#2 -54401052#1 -54401052#0 -54649790 373843895 gneE111 48586336#1 -192674402#2 -192674402#1 -959553052#4 -959553052#2 -34784840#1 39183706 192668650#2 192668650#3 gneE107 gneE108 3292445#0.4 3292445#3 209#0 55290798#0 210#1 3086259#0 3086261 3091989#1 39340468#0 39340468#1 4271799#1 8769450"/>
    </vehicle>
    <vehicle id="7" depart="5.89">
        <route edges="133875223#17 984881209 55290796 4346053 3027099#0 505404870#0 351684045#0 133875181#0 351684503 3025859#0 3025859#5 3025859#6 3025859#8 133875261#0 133875262#0 133875260#0 48586818 gneE74 54401064 192674702#0 279357279#1 192674701 58295596#0 gneE111 48586336#1"/>
    </vehicle>
    <vehicle id="8" depart="6.73">
        <route edges="3025859#8 133875261#0 133875262#0 133875260#0 48586818 gneE74 gneE75 48586837"/>
    </vehicle>
    <vehicle id="9" depart="7.57">
        <route edges="-133875245#2 -133875236#3 -133875236#1 -133875229 -180869463#1 -133875249#2 -133875226#2 -133875226#0 -3381569#3 94820#0 133875252#0 133875252#3 133875256#0 133875255 4338449#0 4357619 133875223#0 133875223#1 133875223#3 gneE82 133875223#6 133875223#11 133875223#17 984881209 37777462 55290809#0"/>
    </vehicle>
    <vehicle id="10" depart="8.41">
        <route edges="133875252#0 133875252#3 4338448#0 48665005 115952095#0"/>
    </vehicle>
    <vehicle id="11" depart="9.25">
        <route edges="-3086247 -39352131#2 -39352131#1 -3086257#1 -3086258 331545472#2 3086259#0 3086261 3091989#1 39340468#0 39340468#1"/>
    </vehicle>
    <vehicle id="12" depart="10.10">
        <route edges="-3086257#1 -3086258 331545472#2 -210#1 -55290798#2 -209#3 -3292445#8 -3292445#2 gneE109 -192668650#4 -192668650#2 -192668650#1 212#0"/>
    </vehicle>
    <vehicle id="13" depart="10.94">
        <route edges="-192674402#2 -192674402#1 -959553052#4 -959553052#2 -34784840#1 39183706 192668650#2 192668650#3 gneE107 gneE108 3292445#0.4 3292445#3 209#0 55290798#0 210#1 30992002 -3120967#1 8769305 32751327 3086252#0 3086251"/>
    </vehicle>
    <vehicle id="14" depart="11.78">
        <route edges="133875252#3 133875256#0 133875255 4338449#0 4357619 133875223#0 133875223#1 133875223#3 gneE82 133875223#6 133875223#11 133875223#17 984881209 55290796 4346053 3027099#0 505404870#0 351684045#0 133875181#0 351684503 3025859#0 3025859#5 3025859#6 3025859#8 133875261#0 133875262#0 133875260#0 48586818 gneE74 54401064 192674702#0 279357279#1 192674701 58295596#0 gneE111 48586336#1 -192674402#2 -192674402#1 -959553052#4 -959553052#2 -34784840#1 39183706 192668650#2 192668650#3 gneE107 gneE108 3292445#0.4 3292445#3 209#0 55290798#0 210#1 30992002 773250139#1 3086258"/>
    </vehicle>
    <vehicle id="15" depart="12.62">
        <route edges="-2960931#0 326284103 54401064 192674702#0 279357279#1 192674701 58295596#0 gneE111 48586336#1 -192674402#2 -192674402#1 -959553052#4 -959553052#2 -34784840#1 39183706 192668650#2"/>
    </vehicle>
    <vehicle id="16" depart="13.46">
        <route edges="180869463#0 133875229 133875236#0 133875236#2 133875245#0 133875245#3 gneE52 gneE52.55 -gneE51 -404611919#1 gneE25 gneE26 gneE43 gneE45 gneE28 -444272568#2 -444272568#0"/>
    </vehicle>
    <vehicle id="17" depart="14.30">
        <route edges="115353253#0 115353253#1 48206750 -54401052#2 -54401052#1 -54401052#0 -54649790 373843895 gneE111 48586336#1 -192674402#2 -192674402#1 -959553052#4 -959553052#2 -34784840#1 39183706 192668650#2 192668650#3 gneE107 gneE108 3292445#0.4 3292445#3 -127654225#19"/>
    </vehicle>
    <vehicle id="18" depart="15.14">
        <route edges="gneE111 48586336#1 -192674402#2 -192674402#1 -959553052#4 -959553052#2 -34784840#1 39183706 192668650#2 192668650#3 gneE107 gneE108 3292445#0.4 3292445#3 209#0 55290798#0 210#1 30992002 -3120967#1 8769305 309842640#0 39352131#0 39352131#2"/>
    </vehicle>
    <vehicle id="19" depart="15.99">
        <route edges="133875245#3 gneE52 gneE52.55 -gneE51 -404611919#1 gneE25 gneE26 gneE43 gneE45 gneE33"/>
    </vehicle>
    <vehicle id="20" depart="16.83">
        <route edges="-3086252#1 -32751327 -4231711 -3086258 331545472#2 -210#1 -gneE54"/>
    </vehicle>
    <vehicle id="21" depart="17.67">
        <route edges="837572187#0 837572187#1 837573373#0 837573373#2 837573373#4 444272568#1 -gneE28 -gneE45 -gneE43 -gneE26 -gneE25 404611919#0 gneE51 -gneE52 -133875245#3 -133875245#2 -133875236#3 -133875236#1 -133875229 -180869463#1 -133875249#2 -133875226#2 -133875226#0 -3381569#3 94820#0 133875252#0 133875252#3 133875256#0 133875255 4338449#0 4357619 133875223#0 133875223#1 133875223#3 gneE82 133875223#6 133875223#11 133875223#17 984881209"/>
    </vehicle>
    <vehicle id="22" depart="18.51">
        <route edges="683648842#0 683648842#1 683648844 115353253#0 115353253#1 48206750 -54401052#2 -3024771 -2960931#0 326284103 54401064 984881214 984881212 54401067 gneE72 -133875260#3 -133875262#1 -133875261#1 -3025859#8 -3025859#7 -3025859#5 -3025859#3 -351684503 -351685326 -55290805 34243632#0 133875195#0 133875195#3 55290800 55290807"/>
    </vehicle>
    <vehicle id="23" depart="19.35">
        <route edges="-133875223#19 -133875223#16 -133875223#10 gneE81 -133875223#4 -133875223#1 -133875223#0 -4357619 4340722#0 133875244#0 133875232#0 3381569#0 133875226#0 133875226#1 133875249#0 180869463#0 133875229 133875236#0 133875236#2 133875245#0 133875245#3 gneE52 gneE52.55 -gneE51 -404611919#1 gneE25 gneE26 gneE43 gneE45 gneE28 -444272568#2 -444272568#0 39645355#0 39645355#1"/>
    </vehicle>
    <vehicle id="24" depart="20.19">
        <route edges="-133875226#0 -3381569#3 94820#0 133875252#0 133875252#3 4338448#0 48665005 115952095#0 -546225667#1"/>
    </vehicle>
    <vehicle id="25" depart="21.03">
        <route edges="34243632#0 133875195#0 133875195#3 55290800 55290807 55290799 -133875223#19 -133875223#16 -133875223#10 gneE81 -133875223#4 -133875223#1 -133875223#0 -4357619 4340722#0 133875244#0 4338446#0 133875252#0 133875252#3 4338448#0 48665005 115952095#0 -546225667#1 -55602323#6 -gneE91 -55296249#2"/>
    </vehicle>
    <vehicle id="26" depart="21.87">
        <route edges="133875226#1 133875249#0 180869463#0 133875229 133875236#0 133875236#2 133875245#0 133875245#3 gneE52 gneE52.55 -gneE51 -404611919#1 gneE25 gneE26 gneE43 gneE45 gneE28 -444272568#2 -444272568#0 39645355#0"/>
    </vehicle>
    <vehicle id="27" depart="22.72">
        <route edges="gneE81 -133875223#4 -133875223#1 -133875223#0 -4357619 4340722#0 133875244#0 133875232#0 3381569#0 133875226#0 133875226#1 133875249#0"/>
    </vehicle>
    <vehicle id="28" depart="23.56">
        <route edges="-3086247 -39352131#2 -39352131#1 -3086257#1 -3086258 331545472#2 -210#1 -55290798#2 -209#3 -3292445#8 -3292445#2 gneE109 -192668650#4 -192668650#2 -192668650#1 192668649#1 192668647 959553052#0 959553052#3 192674402#0 192674402#2 -48586336#2 -gneE111 -58295596#1 -192674701 -279357279#1 326284091 984881212 54401067 gneE72 -133875260#3 -133875262#1 -133875261#1 -3025859#8 -3025859#7 -3025859#5 -3026116#5 54516245#1"/>
    </vehicle>
    <vehicle id="29" depart="24.40">
        <route edges="34243632#0 133875195#0 133875195#3 55290800 55290807 55290799 -133875223#19 -133875223#16 -133875223#10 gneE81 -133875223#4 -133875223#1 -133875223#0 -4357619 4340722#0 133875244#0 4338446#0 133875252#0 133875252#3 4338448#0 48665005 115952095#0 -546225667#1 -55602323#6 -gneE91 -55296249#2"/>
    </vehicle>
    <vehicle id="30" depart="25.24">
        <route edges="-351684503 -351685326 -55290805 34243632#0 133875195#0 133875195#3 55290800 55290807 55290799 -133875223#19 -133875223#16 -133875223#10 gneE81 -133875223#4 -133875223#1 -133875223#0 -4357619 4340722#0 133875244#0 133875232#0"/>
    </vehicle>
    <vehicle id="31" depart="26.08">
        <route edges="-192668650#1 192668649#1 192668647 959553052#0 959553052#3 192674402#0 192674402#2 -48586336#2 -gneE111 48586337 54649790 54401052#0 54401052#1 54401052#2 414017617 683648842#0 683648842#1 3024957 175773133 3024966#0 3024965#0"/>
    </vehicle>
    <vehicle id="32" depart="26.92">
        <route edges="39348547#1 -3609801#3 2748#0 198245314#1 55296262 4479201#0 4346053 55290810 55290800 55290807 55290799 -133875223#19 -133875223#16 -133875223#10 gneE81 -133875223#4 -133875223#1 -133875223#0 -4357619 4340722#0 133875244#0 133875232#0 3381569#0 133875226#0 133875226#1 133875249#0"/>
    </vehicle>
    <vehicle id="33" depart="27.76">
        <route edges="192671933#0 3025839#0 -133875261#1 -3025859#8 -3025859#7 3026118#0"/>
    </vehicle>
    <vehicle id="34" depart="28.60">
        <route edges="48586336#1 -192674402#2 -192674402#1 -959553052#4 -959553052#2 -34784840#1 39183706 192668650#2 2956761"/>
    </vehicle>
    <vehicle id="35" depart="29.45">
        <route edges="133875223#6 133875223#11 133875223#17 984881209 55290796 4346053 3027099#0 505404870#0 351684045#0 133875181#0 351684503 3025859#0 3025859#5 3025859#6 3025859#8 133875261#0 133875262#0 133875260#0 48586818 gneE74 54401064 192674702#0 279357279#1"/>
    </vehicle>
    <vehicle id="36" depart="30.29">
        <route edges="180869463#0 133875229 133875236#0 133875236#2 133875245#0 133875245#3 gneE52 gneE52.55 -gneE51 -404611919#1 gneE25 gneE26 gneE43 gneE45 gneE28 -444272568#2 -444272568#0"/>
    </vehicle>
    <vehicle id="37" depart="31.13">
        <route edges="3292445#0.4 3292445#3 209#0 55290798#0 210#1"/>
    </vehicle>
    <vehicle id="38" depart="31.97">
        <route edges="39352131#0 39352131#2 39352131#3 837572187#0 837572187#1"/>
    </vehicle>
    <vehicle id="39" depart="32.81">
        <route edges="-30906#3 38619223#0 133875255 4338449#0 4357619 133875223#0 133875223#1 133875223#3 gneE82 133875223#6 133875223#11 133875223#17 984881209 55290796 4346053 3027099#0 505404870#0 351684045#0 133875181#0 351684503 3025859#0 3025859#5 3025859#6 3025859#8 133875261#0 133875262#0 133875260#0 48586818 gneE74 54401064 192674702#0 279357279#1 192674701 58295596#0 gneE111 48586336#1 -192674402#2 -192674402#1 -959553052#4 -959553052#2 -34784840#1 39183706 192668650#2 192668650#3 gneE107 gneE108 3292445#0.4 3292445#3 209#0 55290798#0 210#1 30992002 -3120967#1 8769305 32751327 3086252#0 3086251 3086245#1"/>
    </vehicle>
    <vehicle id="40" depart="33.65">
        <route edges="gneE111 48586336#1 -192674402#2 -192674402#1 -959553052#4 -959553052#2 -34784840#1 39183706 192668650#2 192668650#3 gneE107 gneE108 3292445#0.4 3292445#3 209#0 55290798#0 210#1 30992002 -3120967#1 8769305 309842640#0 39352131#0 39352131#2"/>
    </vehicle>
    <vehicle id="41" depart="34.49">
        <route edges="2761 48173166#0 -899656225#3 -74552388#1 -899645883#4 -899645883#1 gneE108 3292445#0.4 3292445#3 209#0 55290798#0 210#1 30992002 -3120967#1 8769305 309842640#0 39352131#0 39352131#2 39352131#3 837572187#0 837572187#1 837573373#0 837573373#2 837573373#4 444272568#1 -gneE28 -gneE45"/>
    </vehicle>
    <vehicle id="42" depart="35.34">
        <route edges="-gneE111 -58295596#1 -192674701 -279357279#1 326284091 984881212 54401067 gneE72 -133875260#3 -133875262#1 -133875261#1 -3025859#8 -3025859#7 -3025859#5 -3025859#3 -351684503 -351685326 -55290805 34243632#0 133875195#0 133875195#3 55290800 55290807 55290799 984881209 37777462 55290809#0 3441738#0"/>
    </vehicle>
    <vehicle id="43" depart="36.18">
        <route edges="55290809#0 3441738#0 55290801 4236439#0 4236439#1 3441067#0 -203240967#2 -198245314#0 2743#0"/>
    </vehicle>
    <vehicle id="44" depart="37.02">
        <route edges="133875223#3 gneE82 133875223#6 133875223#11 133875223#17 984881209 55290796 4346053 3027099#0 505404870#0 351684045#0 133875181#0 351684503 3025859#0 3025859#5 3025859#6 3025859#8 133875261#0 133875262#0 133875260#0 48586818 gneE74 54401064 192674702#0 279357279#1 192674701 58295596#0 gneE111 48586336#1 -192674402#2 -192674402#1 -959553052#4 -959553052#2 -34784840#1 39183706 192668650#2 192668650#3 gneE107 gneE108 3292445#0.4 3292445#3 209#0 55290798#0"/>
    </vehicle>
    <vehicle id="45" depart="37.86">
        <route edges="55296262 4479201#0 4346053 3027099#0 505404870#0 351684045#0 133875181#0 351684503 3025859#0 3025859#5 3025859#6 3025859#8 133875261#0 133875262#0"/>
    </vehicle>
    <vehicle id="46" depart="38.70">
        <route edges="55602323#3 55602323#3.91 884727976#0 gneE92 115952099#2 -30906#3 38619223#0 133875255 4338449#0 4357619 133875223#0 133875223#1 133875223#3 gneE82 133875223#6 133875223#11 133875223#17 984881209 55290796 4346053 3027099#0 505404870#0 351684045#0 133875181#0 351684503 3025859#0 3025859#5 3026118#0 3026118#6"/>
    </vehicle>
    <vehicle id="47" depart="39.54">
        <route edges="-175773133 683583893 115353253#0 115353253#1 48206750 -54401052#2 -3024771 -2960931#0 326284103 54401064 984881214 984881212 54401067 gneE72 -133875260#3 -133875262#1 -133875261#1 -3025859#8 -3025859#7 -3025859#5 -3025859#3 -351684503 -351685326 -55290805 34243632#0 133875195#0 133875195#3 55290800 55290807 55290799 984881209 37777462"/>
    </vehicle>
    <vehicle id="48" depart="40.38">
        <route edges="133875236#2 133875245#0 133875245#3 gneE52 gneE52.55 -gneE51 -404611919#1 gneE25 gneE26 gneE43 gneE45 gneE28 -444272568#2 -444272568#0 -837573373#3 -837573373#1"/>
    </vehicle>
    <vehicle id="49" depart="41.22">
        <route edges="55602323#3 55602323#3.91 884727976#0 gneE92 115952099#2 -30906#3 38619223#0 133875255 4338449#0 4357619 133875223#0 133875223#1 133875223#3 gneE82 133875223#6 133875223#11 133875223#17 984881209 55290796 4346053 55290810"/>
    </vehicle>
    <vehicle id="50" depart="42.07">
        <route edges="133875181#0 351684503 3025859#0 3025859#5 3025859#6 3025859#8 133875261#0 133875262#0 133875260#0 48586818 gneE74 54401064 192674702#0 279357279#1 192674701 gneE80"/>
    </vehicle>
    <vehicle id="51" depart="42.91">
        <route edges="55296262 4479201#0 4346053 3027099#0 505404870#0 351684045#0 133875181#0 351684503 3025859#0 3025859#5 3025859#6 3025859#8 133875261#0 133875262#0 133875260#0 48586818 gneE74 54401064 192674702#0 279357279#1 192674701 58295596#0 gneE111 3024960#0 3024959#0"/>
    </vehicle>
    <vehicle id="52" depart="43.75">
        <route edges="54401064 984881214 984881212 54401067 gneE72 -133875260#3 -133875262#1 -133875261#1 -3025859#8 -3025859#7 -3025859#5 -3025859#3 -351684503 -351685326 -55290805 34243632#0 133875195#0 133875195#3 55290800 55290807 55290799 -133875223#19 -133875223#16 -133875223#10 gneE81 -133875223#4 -133875223#1 -133875223#0 -4357619 4340722#0 133875244#0 133875232#0 3381569#0 133875226#0 133875226#1 133875249#0"/>
    </vehicle>
    <vehicle id="53" depart="44.59">
        <route edges="-3120967#1 8769305 309842640#0 39352131#0 39352131#2 39352131#3 837572187#0 837572187#1 837573373#0 837573373#2 837573373#4 444272568#1 -gneE28 -gneE45 -gneE43 -gneE26 -gneE25 404611919#0 gneE51 -gneE52 -133875245#3 -133875245#2 -133875236#3 -133875236#1 -133875229 -180869463#1 -133875249#2 -133875226#2 -133875226#0 -3381569#3 94820#0 133875252#0 133875252#3 4338448#0 48665005 115952095#0 -546225667#1 -55602323#6 -gneE91"/>
    </vehicle>
    <vehicle id="54" depart="45.43">
        <route edges="3381569#0 133875226#0 133875226#1 133875249#0 180869463#0 133875229 133875236#0 133875236#2 133875245#0 133875245#3 gneE52 gneE52.55 -gneE51 -404611919#1 gneE25 gneE26 gneE43 gneE45 gneE28 -444272568#2 -444272568#0"/>
    </vehicle>
    <vehicle id="55" depart="46.27">
        <route edges="-133875245#2 -133875236#3 -133875236#1 -133875229 -180869463#1 -133875249#2 -133875226#2 -133875226#0 -3381569#3 94820#0 133875252#0 133875252#3 133875256#0 133875255 4338449#0 4357619 133875223#0 133875223#1 133875223#3 gneE82 133875223#6 133875223#11 133875223#17 984881209 37777462 55290809#0"/>
    </vehicle>
    <vehicle id="56" depart="47.11">
        <route edges="133875223#3 gneE82 133875223#6 133875223#11 133875223#17 984881209 55290796 4346053 3027099#0 505404870#0 351684045#0 133875181#0 351684503 3025859#0 3025859#5 3025859#6 3025859#8 133875261#0 133875262#0 133875260#0 48586818 gneE74 54401064 192674702#0 279357279#1 192674701 58295596#0 gneE111 48586336#1 -192674402#2 -192674402#1 -959553052#4 -959553052#2 -34784840#1 39183706 192668650#2 192668650#3 gneE107 gneE108 3292445#0.4 3292445#3 209#0 55290798#0"/>
    </vehicle>
    <vehicle id="57" depart="47.96">
        <route edges="48207220 52573120 55290813#0 -4279571 3024966#0"/>
    </vehicle>
    <vehicle id="58" depart="48.80">
        <route edges="54401064 984881214 984881212 54401067 gneE72 -133875260#3 -133875262#1 -133875261#1 -3025859#8 -3025859#7 -3025859#5 -3025859#3 -351684503 -351685326 -55290805 34243632#0 133875195#0 133875195#3 55290800 55290807 55290799 -133875223#19 -133875223#16 -133875223#10 gneE81 -133875223#4 -133875223#1 -133875223#0 -4357619 4340722#0 133875244#0 133875232#0 3381569#0 133875226#0 133875226#1 133875249#0"/>
    </vehicle>
    <vehicle id="59" depart="49.64">
        <route edges="-192668650#4 -192668650#2 -192668650#1 192668649#1 192668647 959553052#0 959553052#3 192674402#0 192674402#2 -48586336#2 -gneE111 -58295596#1 -192674701 -279357279#1 326284091 984881212 54401067 gneE73 gneE74 gneE75"/>
    </vehicle>
    <vehicle id="60" depart="50.48">
        <route edges="-gneE111 -58295596#1 -192674701 -279357279#1 326284091 984881212 54401067 gneE72 -133875260#3 -133875262#1 -133875261#1 -3025859#8 -3025859#7 -3025859#5 -3025859#3 -351684503 -351685326 -55290805 34243632#0 133875195#0 133875195#3 55290800 55290807 55290799 984881209 37777462 55290809#0 3441738#0"/>
    </vehicle>
    <vehicle id="61" depart="51.32">
        <route edges="55602323#3 55602323#3.91 884727976#0 gneE92 115952099#2 -30906#3 38619223#0 133875255 4338449#0 4357619 133875223#0 133875223#1 133875223#3 -3403171#1"/>
    </vehicle>
    <vehicle id="62" depart="52.16">
        <route edges="133875226#1 133875249#0 180869463#0 133875229 133875236#0 133875236#2 133875245#0 133875245#3 gneE52 gneE52.55 -gneE51 -404611919#1 gneE25 gneE26 gneE43 gneE45 gneE28 -444272568#2 -444272568#0 39645355#0"/>
    </vehicle>
    <vehicle id="63" depart="53.00">
        <route edges="-133875245#2 -133875236#3 -133875236#1 -133875229 -180869463#1 -133875249#2 -133875226#2 -133875226#0 -3381569#3 94820#0 133875252#0 133875252#3 133875256#0 133875255 4338449#0 4357619 133875223#0 133875223#1 133875223#3 gneE82 133875223#6 133875223#11 133875223#17 984881209 37777462 55290809#0"/>
    </vehicle>
    <vehicle id="64" depart="53.84">
        <route edges="54401064 984881214 984881212 54401067 gneE72 -133875260#3 -133875262#1 -133875261#1 -3025859#8 -3025859#7 -3025859#5 -3025859#3 -351684503 -351685326 -55290805 34243632#0 133875195#0 133875195#3 55290800 55290807 55290799 -133875223#19 -133875223#16 -133875223#10"/>
    </vehicle>
    <vehicle id="65" depart="54.69">
        <route edges="55296262 4479201#0 4346053 3027099#0 505404870#0 351684045#0 133875181#0 351684503 3025859#0 3025859#5 3025859#6 3025859#8 133875261#0 133875262#0 133875260#0 48586818 gneE74 54401064 192674702#0 279357279#1 192674701 58295596#0 gneE111 3024960#0 3024959#0"/>
    </vehicle>
    <vehicle id="66" depart="55.53">
        <route edges="133875252#3 133875256#0 133875255 4338449#0 4357619 133875223#0 133875223#1 133875223#3 gneE82 133875223#6 133875223#11 133875223#17 984881209 55290796 4346053 3027099#0 505404870#0 351684045#0 133875181#0 351684503 3025859#0 3025859#5 3025859#6 3025859#8 133875261#0 133875262#0 133875260#0 48586818 gneE74 54401064 192674702#0 279357279#1 192674701 58295596#0 gneE111 48586336#1 -192674402#2"/>
    </vehicle>
    <vehicle id="67" depart="56.37">
        <route edges="-4357619 4340722#0 133875244#0 4338446#0 133875252#0 133875252#3 4338448#0 48665005 115952095#0 -546225667#1 -55602323#6 4231695#0 4231695#3 4231696#1"/>
    </vehicle>
    <vehicle id="68" depart="57.21">
        <route edges="192671933#0 3025839#0 133875262#0 133875260#0 48586818 gneE74 54401064 192674702#0 279357279#1 192674701 58295596#0 gneE111 48586336#1 -192674402#2 -192674402#1 -959553052#4 -959553052#2 -34784840#1 39183706 192668650#2 192668650#3 gneE107 3292444#0.4 899645883#2 899645883#5 74552388#2 7985210#0"/>
    </vehicle>
    <vehicle id="69" depart="58.05">
        <route edges="55290796 4346053 55290810 55290800 55290807 55290799 -133875223#19 -133875223#16 -133875223#10 gneE81 -133875223#4 -133875223#1 -133875223#0 -4357619 4340722#0 133875244#0 4338446#0 133875252#0 133875252#3 4338448#0 48665005 115952095#0 -546225667#1 -55602323#6 -gneE91 -55296249#2 2536#0"/>
    </vehicle>
    <vehicle id="70" depart="58.89">
        <route edges="55602323#3 55602323#3.91 884727976#0 gneE92 115952099#2 -30906#3 38619223#0 133875255 4338449#0 4357619 133875223#0 133875223#1 133875223#3 gneE82 133875223#6 133875223#11 133875223#17 984881209 55290796 4346053 3027099#0 505404870#0 351684045#0 133875181#0 351684503 3025859#0 3025859#5 3025859#6 3025859#8 133875261#0 133875262#0 133875260#0 48586818 gneE74 54401064"/>
    </vehicle>
    <vehicle id="71" depart="59.73">
        <route edges="55290810 55290800 3027057"/>
    </vehicle>
    <vehicle id="72" depart="60.57">
        <route edges="133875262#0 133875260#0 48586818 gneE74 54401064 192674702#0 279357279#1 192674701 58295596#0 gneE111 48586336#1 -192674402#2 -192674402#1 -959553052#4 -959553052#2 -34784840#1 39183706 192668650#2 192668650#3 gneE107 3292444#0.4 899645883#2"/>
    </vehicle>
    <vehicle id="73" depart="61.42">
        <route edges="3091989#1 -2524 30991997#1 1040747475 2757#0 2757#1 1025513686#0 1025513686#1 2761 48173166#0 -899656225#3 -74552388#1 -899645883#4 -899645883#1 gneE108 gneE109 -192668650#4 -192668650#2 -192668650#1 192668649#1 192668647 959553052#0 959553052#3 192674402#0 192674402#2 -48586336#2 -gneE111 -58295596#1 -192674701 -279357279#1 326284091 984881212 54401067 gneE72 -133875260#3 -133875262#1 -133875261#1 -3025859#8 -3025859#7 -3025859#5"/>
    </vehicle>
    <vehicle id="74" depart="62.26">
        <route edges="209#0 55290798#0 210#1 30992002 -3120967#1 8769305 309842640#0 39352131#0 39352131#2 39352131#3 837572187#0 837572187#1 837573373#0 837573373#2 837573373#4 444272568#1 -gneE28 -gneE45 -gneE43 -gneE26 -gneE25 404611919#0 gneE51 -gneE52 -133875245#3 -133875245#2 -133875236#3 -133875236#1 -133875229 -180869463#1 -133875249#2 -133875226#2 -133875226#0 -3381569#3 94820#0 133875252#0 133875252#3 133875256#0 133875255 4338449#0 4357619 133875223#0 133875223#1"/>
    </vehicle>
    <vehicle id="75" depart="63.10">
        <route edges="55296262 4479201#0 4346053 3027099#0 505404870#0 351684045#0 133875181#0 351684503 3025859#0 3025859#5 3025859#6 3025859#8 133875261#0 133875262#0 133875260#0 48586818 gneE74 54401064 192674702#0 279357279#1 192674701 58295596#0 gneE111 3024960#0 3024959#0"/>
    </vehicle>
    <vehicle id="76" depart="63.94">
        <route edges="-55290805 34243632#0 133875195#0 133875195#3 55290800 55290807 55290799 -133875223#19 -133875223#16 -133875223#10 gneE81 -133875223#4 -133875223#1 -133875223#0 -4357619 4340722#0 133875244#0 133875232#0 3381569#0 133875226#0 133875226#1 133875249#0"/>
    </vehicle>
    <vehicle id="77" depart="64.78">
        <route edges="192668649#1 192668647 959553052#0 959553052#3 192674402#0 192674402#2 -48586336#2 3024960#0 -3024960#1 48586336#1 -192674402#2 -192674402#1 -959553052#4 -959553052#2 -34784840#1 39183706 192668650#2 192668650#3 gneE107 gneE108 3292445#0.4 3292445#3 209#0 55290798#0 210#1 30992002 -3120967#1 8769305 309842640#0 39352131#0"/>
    </vehicle>
    <vehicle id="78" depart="65.62">
        <route edges="884727976#0 gneE92 115952099#2 -30906#3 38619223#0 133875255 4338449#0 4357619 133875223#0 133875223#1 133875223#3 gneE82 133875223#6 133875223#11 133875223#17 984881209 37777462"/>
    </vehicle>
    <vehicle id="79" depart="66.46">
        <route edges="3381569#0 133875226#0 133875226#1 133875249#0 180869463#0 133875229 133875236#0 133875236#2 133875245#0 133875245#3 gneE52 gneE52.55 -gneE51 -404611919#1 gneE25 gneE26 gneE43 gneE45 gneE28 -444272568#2 -444272568#0"/>
    </vehicle>
    <vehicle id="80" depart="67.31">
        <route edges="683648842#1 683648844 115353253#0 115353253#1 48206750 -54401052#2 -3024771 -2960931#0 326284103 54401064 984881214 984881212 54401067 gneE72 -133875260#3 -133875262#1 -133875261#1 -3025859#8 -3025859#7 -3025859#5 -3025859#3 -351684503 -351685326 -55290805 34243632#0 133875195#0 133875195#3 55290800 55290807 55290799 -133875223#19 -133875223#16 -133875223#10 gneE81 -133875223#4 -133875223#1 -133875223#0 -4357619"/>
    </vehicle>
    <vehicle id="81" depart="68.15">
        <route edges="-351685326 -55290805 34243632#0 133875195#0 133875195#3 55290800 55290807 55290799 -133875223#19 -133875223#16 -133875223#10 gneE81 -133875223#4 -133875223#1 -133875223#0 -4357619 4340722#0 133875244#0 4338446#0 133875252#0 133875252#3 4338448#0 48665005 115952095#0 -546225667#1 -8769288#1"/>
    </vehicle>
    <vehicle id="82" depart="68.99">
        <route edges="52573118#0 2755#0 48207220 52573120 55290813#0 -4279571 -175773133 683583893 115353253#0 115353253#1 48206750 -54401052#2 -54401052#1 -54401052#0 -54649790 373843895 gneE111 48586336#1 -192674402#2 -192674402#1 -959553052#4 -959553052#2 -34784840#1 39183706 192668650#2 192668650#3 gneE107 gneE108 3292445#0.4 3292445#3 209#0 55290798#0 210#1 30992002 -3120967#1 8769305 309842640#0 39352131#0 39352131#2 39352131#3 837572187#0 3600469#0"/>
    </vehicle>
    <vehicle id="83" depart="69.83">
        <route edges="4045612#1 3091989#1 -2524 30991997#1 1040747475 2757#0 2757#1 1025513686#0 1025513686#1 2761 48173166#0 -899656225#3 -74552388#1 -899645883#4 -899645883#1 gneE108 3292445#0.4 3292445#3 209#0 55290798#0 210#1 30992002 -3120967#1 8769305 309842640#0 39352131#0 39352131#2 39352131#3 837572187#0 837572187#1 837573373#0 837573373#2 837573373#4 444272568#1 3098972#0"/>
    </vehicle>
    <vehicle id="84" depart="70.67">
        <route edges="55290796 4346053 55290810 55290800 55290807 55290799 -133875223#19 -133875223#16 -133875223#10 gneE81 -133875223#4 -133875223#1 -133875223#0 -4357619 4340722#0 133875244#0 133875232#0"/>
    </vehicle>
    <vehicle id="85" depart="71.51">
        <route edges="48586336#1 -192674402#2 -192674402#1 -959553052#4 -959553052#2 -34784840#1 39183706 192668650#2 192668650#3 gneE107 gneE108 3292445#0.4 3292445#3 -127654225#19"/>
    </vehicle>
    <vehicle id="86" depart="72.35">
        <route edges="-192668650#1 192668649#1 192668647 959553052#0 959553052#3 192674402#0 192674402#2 -48586336#2 -gneE111 48586337 54649790 54401052#0 54401052#1 54401052#2 414017617 683648842#0 683648842#1 3024957 175773133 3024962 48207559 52030084#0 2765 52573118#0 2755#0 48207220 52573120"/>
    </vehicle>
    <vehicle id="87" depart="73.19">
        <route edges="4045612#0 4045612#1 3091989#1 -2524 30991997#1 1040747475 2757#0 2757#1 1025513686#0 1025513686#1 2761 48173166#0 -899656225#3 -74552388#1 -899645883#4 -899645883#1 gneE108 3292445#0.4 3292445#3 209#0 55290798#0 210#1 30992002 -3120967#1 8769305 32751327 3086252#0 3086251"/>
    </vehicle>
    <vehicle id="88" depart="74.04">
        <route edges="198245314#1 55296262 4479201#0 4346053 55290810 55290800 55290807 55290799 -133875223#19 -133875223#16 -133875223#10 gneE81 -133875223#4 -133875223#1 -133875223#0 -4357619 4340722#0 133875244#0 4338446#0 133875252#0 133875252#3 4338448#0 48665005 115952095#0 -546225667#1 -55602323#6 -57962409 -42164793"/>
    </vehicle>
    <vehicle id="89" depart="74.88">