<?xml version="1.0" encoding="UTF-8"?>

<!-- generated on 2022-03-02 11:40:15 by Eclipse SUMO netedit Version 1.10.0
<configuration xmlns:xsi="http://www.w3.org/2001/XMLSchema-instance" xsi:noNamespaceSchemaLocation="http://sumo.dlr.de/xsd/netconvertConfiguration.xsd">

    <input>
        <sumo-net-file value="C:\Users\sam\Documents\Work\Final%20Year\Dissertation\diss\basicGrid.net.xml"/>
    </input>

    <output>
        <output-file value="C:\Users\sam\Documents\Work\Final%20Year\Dissertation\diss\basicGrid.net.xml"/>
    </output>

    <processing>
        <geometry.min-radius.fix.railways value="false"/>
        <geometry.max-grade.fix value="false"/>
        <offset.disable-normalization value="true"/>
        <lefthand value="false"/>
    </processing>

    <junctions>
        <no-turnarounds value="true"/>
        <junctions.corner-detail value="5"/>
        <junctions.limit-turn-speed value="5.5"/>
        <rectangular-lane-cut value="false"/>
    </junctions>

    <pedestrian>
        <walkingareas value="false"/>
    </pedestrian>

    <netedit>
        <route-files value="C:\Users\sam\Documents\Work\Final%20Year\Dissertation\diss\basicGridDem.rou.xml"/>
    </netedit>

    <report>
        <aggregate-warnings value="5"/>
    </report>

</configuration>
-->

<routes xmlns:xsi="http://www.w3.org/2001/XMLSchema-instance" xsi:noNamespaceSchemaLocation="http://sumo.dlr.de/xsd/routes_file.xsd">
    <flow id="flow_0" begin="0.00" from="gneE69" to="-gneE90" end="20.00" number="10"/>
    <flow id="flow_1" begin="0.00" from="-gneE90" to="gneE75" end="20.00" number="10"/>
    <flow id="flow_10" begin="0.00" from="gneE75" to="-gneE78" end="20.00" number="10"/>
    <flow id="flow_11" begin="0.00" from="gneE73" to="-gneE98" end="20.00" number="10"/>
    <flow id="flow_12" begin="0.00" from="gneE98" to="-gneE73" end="20.00" number="10"/>
    <flow id="flow_13" begin="0.00" from="-gneE101" to="-gneE107" end="20.00" number="10"/>
    <flow id="flow_14" begin="0.00" from="gneE107" to="-gneE101" end="20.00" number="10"/>
    <flow id="flow_2" begin="0.00" from="gneE75" to="gneE107" end="20.00" number="10"/>
    <flow id="flow_3" begin="0.00" from="gneE73" to="-gneE90" end="20.00" number="10"/>
    <flow id="flow_4" begin="0.00" from="-gneE78" to="-gneE98" end="20.00" number="10"/>
    <flow id="flow_5" begin="0.00" from="-gneE101" to="gneE69" end="20.00" number="10"/>
    <flow id="flow_6" begin="0.00" from="gneE69" to="-gneE101" end="20.00" number="10"/>
    <flow id="flow_7" begin="0.00" from="gneE98" to="-gneE78" end="20.00" number="10"/>
    <flow id="flow_8" begin="0.00" from="-gneE90" to="gneE69" end="20.00" number="10"/>
    <flow id="flow_9" begin="0.00" from="gneE78" to="gneE75" end="20.00" number="10"/>
</routes>
