<?xml version="1.0" encoding="UTF-8"?>

<!-- generated on 2022-03-02 11:40:02 by Eclipse SUMO netedit Version 1.10.0
<configuration xmlns:xsi="http://www.w3.org/2001/XMLSchema-instance" xsi:noNamespaceSchemaLocation="http://sumo.dlr.de/xsd/netconvertConfiguration.xsd">

    <input>
        <sumo-net-file value="C:\Users\sam\Documents\Work\Final%20Year\Dissertation\diss\ltnGrid.net.xml"/>
    </input>

    <output>
        <output-file value="C:\Users\sam\Documents\Work\Final%20Year\Dissertation\diss\ltnGrid.net.xml"/>
    </output>

    <processing>
        <geometry.min-radius.fix.railways value="false"/>
        <geometry.max-grade.fix value="false"/>
        <offset.disable-normalization value="true"/>
        <lefthand value="false"/>
    </processing>

    <junctions>
        <no-turnarounds value="true"/>
        <junctions.corner-detail value="5"/>
        <junctions.limit-turn-speed value="5.5"/>
        <rectangular-lane-cut value="false"/>
    </junctions>

    <pedestrian>
        <walkingareas value="false"/>
    </pedestrian>

    <netedit>
        <route-files value="C:\Users\sam\Documents\Work\Final%20Year\Dissertation\diss\ltnGridDem.rou.xml"/>
    </netedit>

    <report>
        <aggregate-warnings value="5"/>
    </report>

</configuration>
-->

<routes xmlns:xsi="http://www.w3.org/2001/XMLSchema-instance" xsi:noNamespaceSchemaLocation="http://sumo.dlr.de/xsd/routes_file.xsd">
    <flow id="flow_0" begin="0.00" from="gneE80" to="gneE152" end="20.00" number="10"/>
    <flow id="flow_1" begin="0.00" from="gneE152" to="-gneE80" end="20.00" number="10"/>
    <flow id="flow_10" begin="0.00" from="gneE87" to="gneE140" end="20.00" number="10"/>
    <flow id="flow_11" begin="0.00" from="gneE140" to="-gneE114" end="20.00" number="10"/>
    <flow id="flow_12" begin="0.00" from="gneE139" to="-gneE121" end="20.00" number="10"/>
    <flow id="flow_13" begin="0.00" from="-gneE139" to="gneE153" end="20.00" number="10"/>
    <flow id="flow_14" begin="0.00" from="-gneE140" to="gneE87" end="20.00" number="10"/>
    <flow id="flow_2" begin="0.00" from="gneE153" to="-gneE139" end="20.00" number="10"/>
    <flow id="flow_3" begin="0.00" from="-gneE153" to="gneE114" end="20.00" number="10"/>
    <flow id="flow_4" begin="0.00" from="-gneE114" to="gneE139" end="20.00" number="10"/>
    <flow id="flow_5" begin="0.00" from="-gneE121" to="gneE140" end="20.00" number="10"/>
    <flow id="flow_6" begin="0.00" from="-gneE121" to="-gneE152" end="20.00" number="10"/>
    <flow id="flow_7" begin="0.00" from="gneE114" to="gneE87" end="20.00" number="10"/>
    <flow id="flow_8" begin="0.00" from="-gneE87" to="gneE153" end="20.00" number="10"/>
    <flow id="flow_9" begin="0.00" from="-gneE80" to="-gneE114" end="20.00" number="10"/>
</routes>
