<?xml version="1.0" encoding="UTF-8"?>

<!-- generated on 2022-02-22 14:46:00 by Eclipse SUMO netedit Version 1.10.0
<configuration xmlns:xsi="http://www.w3.org/2001/XMLSchema-instance" xsi:noNamespaceSchemaLocation="http://sumo.dlr.de/xsd/netconvertConfiguration.xsd">

    <input>
        <sumo-net-file value="C:\Users\sam\Documents\Work\Final%20Year\Dissertation\diss\bath.net.xml"/>
    </input>

    <output>
        <output-file value="C:\Users\sam\Documents\Work\Final%20Year\Dissertation\diss\bath.net.xml"/>
    </output>

    <processing>
        <geometry.min-radius.fix.railways value="false"/>
        <geometry.max-grade.fix value="false"/>
        <offset.disable-normalization value="true"/>
        <lefthand value="true"/>
    </processing>

    <junctions>
        <no-turnarounds value="true"/>
        <junctions.corner-detail value="5"/>
        <junctions.limit-turn-speed value="5.5"/>
        <rectangular-lane-cut value="false"/>
    </junctions>

    <pedestrian>
        <walkingareas value="false"/>
    </pedestrian>

    <report>
        <aggregate-warnings value="5"/>
    </report>

</configuration>
-->

<net version="1.9" junctionCornerDetail="5" lefthand="true" limitTurnSpeed="5.50" xmlns:xsi="http://www.w3.org/2001/XMLSchema-instance" xsi:noNamespaceSchemaLocation="http://sumo.dlr.de/xsd/net_file.xsd">

    <location netOffset="-542935.32,-5691262.80" convBoundary="0.00,0.00,3521.22,2405.02" origBoundary="-2.389243,51.370888,-2.313501,51.397399" projParameter="+proj=utm +zone=30 +ellps=WGS84 +datum=WGS84 +units=m +no_defs"/>

    <type id="highway.bus_guideway" priority="1" numLanes="1" speed="27.78" allow="bus" oneway="1"/>
    <type id="highway.ford" priority="1" numLanes="1" speed="2.78" allow="army" oneway="1"/>
    <type id="highway.living_street" priority="2" numLanes="1" speed="2.78" disallow="tram rail_urban rail rail_electric rail_fast ship" oneway="1"/>
    <type id="highway.motorway" priority="14" numLanes="2" speed="39.44" allow="private emergency authority army vip passenger hov taxi bus coach delivery truck trailer motorcycle evehicle custom1 custom2" oneway="1"/>
    <type id="highway.motorway_link" priority="9" numLanes="1" speed="22.22" allow="private emergency authority army vip passenger hov taxi bus coach delivery truck trailer motorcycle evehicle custom1 custom2" oneway="1"/>
    <type id="highway.primary" priority="12" numLanes="2" speed="27.78" disallow="tram rail_urban rail rail_electric rail_fast ship" oneway="1"/>
    <type id="highway.primary_link" priority="7" numLanes="1" speed="22.22" disallow="tram rail_urban rail rail_electric rail_fast ship" oneway="1"/>
    <type id="highway.raceway" priority="15" numLanes="2" speed="83.33" allow="vip" oneway="1"/>
    <type id="highway.residential" priority="3" numLanes="1" speed="13.89" disallow="tram rail_urban rail rail_electric rail_fast ship" oneway="1"/>
    <type id="highway.secondary" priority="11" numLanes="1" speed="27.78" disallow="tram rail_urban rail rail_electric rail_fast ship" oneway="1"/>
    <type id="highway.secondary_link" priority="6" numLanes="1" speed="22.22" disallow="tram rail_urban rail rail_electric rail_fast ship" oneway="1"/>
    <type id="highway.tertiary" priority="10" numLanes="1" speed="22.22" disallow="tram rail_urban rail rail_electric rail_fast ship" oneway="1"/>
    <type id="highway.tertiary_link" priority="5" numLanes="1" speed="22.22" disallow="tram rail_urban rail rail_electric rail_fast ship" oneway="1"/>
    <type id="highway.trunk" priority="13" numLanes="2" speed="27.78" disallow="pedestrian bicycle tram rail_urban rail rail_electric rail_fast ship" oneway="1"/>
    <type id="highway.trunk_link" priority="8" numLanes="1" speed="22.22" disallow="pedestrian bicycle tram rail_urban rail rail_electric rail_fast ship" oneway="1"/>
    <type id="highway.unclassified" priority="4" numLanes="1" speed="13.89" disallow="tram rail_urban rail rail_electric rail_fast ship" oneway="1"/>
    <type id="highway.unsurfaced" priority="1" numLanes="1" speed="8.33" disallow="tram rail_urban rail rail_electric rail_fast ship" oneway="1"/>
    <type id="railway.highspeed" priority="21" numLanes="1" speed="69.44" allow="rail_fast" oneway="1"/>
    <type id="railway.light_rail" priority="19" numLanes="1" speed="27.78" allow="rail_urban" oneway="1"/>
    <type id="railway.preserved" priority="16" numLanes="1" speed="27.78" allow="rail" oneway="1"/>
    <type id="railway.rail" priority="20" numLanes="1" speed="44.44" allow="rail" oneway="1"/>
    <type id="railway.subway" priority="18" numLanes="1" speed="27.78" allow="rail_urban" oneway="1"/>
    <type id="railway.tram" priority="17" numLanes="1" speed="13.89" allow="tram" oneway="1"/>

    <edge id=":1046051232_0" function="internal">
        <lane id=":1046051232_0_0" index="0" allow="rail" speed="29.05" length="0.10" shape="1672.85,698.70 1672.85,698.70"/>
    </edge>
    <edge id=":1051587481_0" function="internal">
        <lane id=":1051587481_0_0" index="0" disallow="tram rail_urban rail rail_electric rail_fast ship" speed="13.89" length="14.90" shape="666.39,1674.80 651.52,1675.71"/>
    </edge>
    <edge id=":1051587481_1" function="internal">
        <lane id=":1051587481_1_0" index="0" disallow="tram rail_urban rail rail_electric rail_fast ship" speed="13.89" length="14.96" shape="666.13,1678.52 662.53,1677.41 658.90,1676.45 655.24,1675.82 651.52,1675.71"/>
    </edge>
    <edge id=":1052477172_0" function="internal">
        <lane id=":1052477172_0_0" index="0" disallow="tram rail_urban rail rail_electric rail_fast ship" speed="13.89" length="8.16" shape="687.38,1697.97 687.18,1695.56 687.16,1693.87 687.49,1692.25 688.34,1690.00"/>
    </edge>
    <edge id=":1052477172_1" function="internal">
        <lane id=":1052477172_1_0" index="0" disallow="tram rail_urban rail rail_electric rail_fast ship" speed="13.89" length="8.09" shape="687.38,1697.97 687.02,1695.64 686.38,1694.14 685.44,1692.73 684.15,1690.69"/>
    </edge>
    <edge id=":1060160459_0" function="internal">
        <lane id=":1060160459_0_0" index="0" disallow="tram rail_urban rail rail_electric rail_fast ship" speed="3.65" length="4.67" shape="2485.28,1413.63 2486.50,1414.38 2487.40,1414.41 2487.96,1413.72 2488.18,1412.29"/>
    </edge>
    <edge id=":1070737654_0" function="internal">
        <lane id=":1070737654_0_0" index="0" disallow="tram rail_urban rail rail_electric rail_fast ship" speed="6.55" length="9.08" shape="1701.25,2142.06 1700.83,2144.49 1699.73,2146.22 1697.94,2147.25 1695.46,2147.56"/>
    </edge>
    <edge id=":1070737654_1" function="internal">
        <lane id=":1070737654_1_0" index="0" disallow="tram rail_urban rail rail_electric rail_fast ship" speed="13.89" length="14.38" shape="1701.25,2142.06 1700.80,2156.43"/>
    </edge>
    <edge id=":1070737654_2" function="internal">
        <lane id=":1070737654_2_0" index="0" disallow="tram rail_urban rail rail_electric rail_fast ship" speed="3.65" length="2.34" shape="1701.25,2142.06 1702.01,2143.28 1702.80,2143.70"/>
    </edge>
    <edge id=":1070737654_9" function="internal">
        <lane id=":1070737654_9_0" index="0" disallow="tram rail_urban rail rail_electric rail_fast ship" speed="3.65" length="2.34" shape="1702.80,2143.70 1703.61,2143.32 1704.44,2142.14"/>
    </edge>
    <edge id=":1070737654_3" function="internal">
        <lane id=":1070737654_3_0" index="0" disallow="tram rail_urban rail rail_electric rail_fast ship" speed="13.89" length="14.34" shape="1704.00,2156.47 1704.44,2142.14"/>
    </edge>
    <edge id=":1070737654_4" function="internal">
        <lane id=":1070737654_4_0" index="0" disallow="tram rail_urban rail rail_electric rail_fast ship" speed="7.89" length="6.05" shape="1704.00,2156.47 1703.64,2152.61 1702.58,2150.71"/>
    </edge>
    <edge id=":1070737654_5" function="internal">
        <lane id=":1070737654_5_0" index="0" disallow="tram rail_urban rail rail_electric rail_fast ship" speed="3.65" length="2.34" shape="1704.00,2156.47 1703.22,2155.26 1702.42,2154.85"/>
    </edge>
    <edge id=":1070737654_10" function="internal">
        <lane id=":1070737654_10_0" index="0" disallow="tram rail_urban rail rail_electric rail_fast ship" speed="7.89" length="8.15" shape="1702.58,2150.71 1702.10,2149.84 1699.37,2148.16 1695.46,2147.56"/>
    </edge>
    <edge id=":1070737654_11" function="internal">
        <lane id=":1070737654_11_0" index="0" disallow="tram rail_urban rail rail_electric rail_fast ship" speed="3.65" length="2.34" shape="1702.42,2154.85 1701.62,2155.24 1700.80,2156.43"/>
    </edge>
    <edge id=":1070737654_6" function="internal">
        <lane id=":1070737654_6_0" index="0" disallow="tram rail_urban rail rail_electric rail_fast ship" speed="6.41" length="8.99" shape="1695.43,2150.76 1697.89,2151.14 1699.60,2152.21 1700.57,2153.98 1700.80,2156.43"/>
    </edge>
    <edge id=":1070737654_7" function="internal">
        <lane id=":1070737654_7_0" index="0" disallow="tram rail_urban rail rail_electric rail_fast ship" speed="8.04" length="14.19" shape="1695.43,2150.76 1699.29,2150.26 1702.08,2148.66 1703.80,2145.95 1704.44,2142.14"/>
    </edge>
    <edge id=":1070737654_8" function="internal">
        <lane id=":1070737654_8_0" index="0" disallow="tram rail_urban rail rail_electric rail_fast ship" speed="3.65" length="4.67" shape="1695.43,2150.76 1696.64,2149.98 1697.05,2149.18 1696.65,2148.38 1695.46,2147.56"/>
    </edge>
    <edge id=":1070737786_0" function="internal">
        <lane id=":1070737786_0_0" index="0" disallow="pedestrian bicycle tram rail_urban rail rail_electric rail_fast ship" speed="3.51" length="2.99" shape="1819.92,2146.11 1822.72,2147.16"/>
    </edge>
    <edge id=":1070737786_1" function="internal">
        <lane id=":1070737786_1_0" index="0" disallow="tram rail_urban rail rail_electric rail_fast ship" speed="13.41" length="1.25" shape="1819.92,2146.11 1818.68,2145.49"/>
        <lane id=":1070737786_1_1" index="1" disallow="tram rail_urban rail rail_electric rail_fast ship" speed="13.41" length="1.25" shape="1818.60,2149.03 1817.61,2148.51"/>
    </edge>
    <edge id=":1070737786_3" function="internal">
        <lane id=":1070737786_3_0" index="0" disallow="tram rail_urban rail rail_electric rail_fast ship" speed="3.65" length="2.34" shape="1818.60,2149.03 1817.18,2149.26 1816.48,2149.82"/>
    </edge>
    <edge id=":1070737786_8" function="internal">
        <lane id=":1070737786_8_0" index="0" disallow="tram rail_urban rail rail_electric rail_fast ship" speed="3.65" length="2.34" shape="1816.48,2149.82 1816.51,2150.72 1817.28,2151.94"/>
    </edge>
    <edge id=":1070737786_4" function="internal">
        <lane id=":1070737786_4_0" index="0" disallow="tram rail_urban rail rail_electric rail_fast ship" speed="13.41" length="0.73" shape="1815.46,2154.53 1815.62,2154.61 1815.71,2154.69 1815.80,2154.77 1815.95,2154.86"/>
        <lane id=":1070737786_4_1" index="1" disallow="tram rail_urban rail rail_electric rail_fast ship" speed="13.41" length="0.73" shape="1816.53,2151.52 1816.76,2151.62 1816.91,2151.72 1817.05,2151.82 1817.28,2151.94"/>
    </edge>
    <edge id=":1070737786_6" function="internal">
        <lane id=":1070737786_6_0" index="0" disallow="pedestrian bicycle tram rail_urban rail rail_electric rail_fast ship" speed="10.11" length="6.24" shape="1816.53,2151.52 1818.51,2151.57 1819.64,2150.34 1820.77,2148.61 1821.19,2148.29"/>
    </edge>
    <edge id=":1070737786_7" function="internal">
        <lane id=":1070737786_7_0" index="0" disallow="tram rail_urban rail rail_electric rail_fast ship" speed="3.65" length="2.34" shape="1816.53,2151.52 1817.93,2151.17 1818.58,2150.55"/>
    </edge>
    <edge id=":1070737786_9" function="internal">
        <lane id=":1070737786_9_0" index="0" disallow="pedestrian bicycle tram rail_urban rail rail_electric rail_fast ship" speed="10.11" length="1.91" shape="1821.19,2148.29 1822.72,2147.16"/>
    </edge>
    <edge id=":1070737786_10" function="internal">
        <lane id=":1070737786_10_0" index="0" disallow="tram rail_urban rail rail_electric rail_fast ship" speed="3.65" length="2.34" shape="1818.58,2150.55 1818.47,2149.66 1817.61,2148.51"/>
    </edge>
    <edge id=":1075355263_0" function="internal">
        <lane id=":1075355263_0_0" index="0" disallow="pedestrian bicycle tram rail_urban rail rail_electric rail_fast ship" speed="13.41" length="17.38" shape="838.40,987.88 823.55,996.71"/>
        <lane id=":1075355263_0_1" index="1" disallow="pedestrian bicycle tram rail_urban rail rail_electric rail_fast ship" speed="13.41" length="17.38" shape="840.36,990.42 825.34,999.36"/>
    </edge>
    <edge id=":1075355263_2" function="internal">
        <lane id=":1075355263_2_0" index="0" disallow="pedestrian bicycle tram rail_urban rail rail_electric rail_fast ship" speed="13.41" length="17.18" shape="842.23,996.13 837.00,995.44 833.27,995.48 829.79,996.65 825.34,999.36"/>
        <lane id=":1075355263_2_1" index="1" disallow="pedestrian bicycle tram rail_urban rail rail_electric rail_fast ship" speed="13.41" length="17.18" shape="842.75,999.44 837.93,998.74 834.46,998.64 831.24,999.58 827.13,1002.01"/>
    </edge>
    <edge id=":1077515108_0" function="internal">
        <lane id=":1077515108_0_0" index="0" disallow="pedestrian bicycle tram rail_urban rail rail_electric rail_fast ship" speed="17.81" length="2.40" shape="2575.50,1866.46 2574.93,1866.03 2574.55,1865.72 2574.18,1865.41 2573.65,1864.93"/>
    </edge>
    <edge id=":1077515108_1" function="internal">
        <lane id=":1077515108_1_0" index="0" disallow="pedestrian bicycle tram rail_urban rail rail_electric rail_fast ship" speed="13.41" length="2.83" shape="2573.57,1869.01 2571.47,1867.33"/>
        <lane id=":1077515108_1_1" index="1" disallow="pedestrian bicycle tram rail_urban rail rail_electric rail_fast ship" speed="13.41" length="2.83" shape="2571.64,1871.56 2569.32,1869.70"/>
    </edge>
    <edge id=":1077515116_0" function="internal">
        <lane id=":1077515116_0_0" index="0" disallow="pedestrian bicycle tram rail_urban rail rail_electric rail_fast ship" speed="13.41" length="3.85" shape="2511.07,1841.20 2512.12,1841.09 2512.85,1841.04 2513.58,1841.04 2514.63,1841.10"/>
        <lane id=":1077515116_0_1" index="1" disallow="pedestrian bicycle tram rail_urban rail rail_electric rail_fast ship" speed="13.41" length="3.85" shape="2510.71,1838.02 2511.93,1837.89 2512.76,1837.83 2513.61,1837.84 2514.83,1837.91"/>
    </edge>
    <edge id=":1077515116_2" function="internal">
        <lane id=":1077515116_2_0" index="0" disallow="pedestrian bicycle tram rail_urban rail rail_electric rail_fast ship" speed="4.46" length="1.41" shape="2510.71,1838.02 2510.06,1839.28"/>
    </edge>
    <edge id=":1077515116_3" function="internal">
        <lane id=":1077515116_3_0" index="0" disallow="pedestrian bicycle tram rail_urban rail rail_electric rail_fast ship" speed="12.18" length="6.27" shape="2508.90,1838.79 2510.48,1839.30 2511.69,1838.88 2513.00,1838.19 2514.83,1837.91"/>
    </edge>
    <edge id=":1077515116_4" function="internal">
        <lane id=":1077515116_4_0" index="0" disallow="pedestrian bicycle tram rail_urban rail rail_electric rail_fast ship" speed="13.41" length="1.41" shape="2508.90,1838.79 2509.24,1838.96 2509.49,1839.02 2509.74,1839.09 2510.06,1839.28"/>
        <lane id=":1077515116_4_1" index="1" disallow="pedestrian bicycle tram rail_urban rail rail_electric rail_fast ship" speed="13.41" length="1.41" shape="2510.61,1836.09 2511.01,1836.29 2511.32,1836.39 2511.62,1836.49 2512.00,1836.73"/>
    </edge>
    <edge id=":1077515125_0" function="internal">
        <lane id=":1077515125_0_0" index="0" disallow="pedestrian bicycle tram rail_urban rail rail_electric rail_fast ship" speed="13.41" length="1.45" shape="2493.06,1845.08 2491.62,1845.23"/>
        <lane id=":1077515125_0_1" index="1" disallow="pedestrian bicycle tram rail_urban rail rail_electric rail_fast ship" speed="13.41" length="1.45" shape="2492.73,1841.90 2491.28,1842.05"/>
    </edge>
    <edge id=":1077515125_2" function="internal">
        <lane id=":1077515125_2_0" index="0" disallow="pedestrian bicycle tram rail_urban rail rail_electric rail_fast ship" speed="13.41" length="3.29" shape="2492.73,1841.90 2491.59,1844.99"/>
        <lane id=":1077515125_2_1" index="1" disallow="pedestrian bicycle tram rail_urban rail rail_electric rail_fast ship" speed="13.41" length="1.48" shape="2492.73,1841.90 2491.25,1841.77"/>
    </edge>
    <edge id=":1077515135_0" function="internal">
        <lane id=":1077515135_0_0" index="0" disallow="pedestrian bicycle tram rail_urban rail rail_electric rail_fast ship" speed="13.41" length="13.39" shape="2518.40,1827.19 2515.60,1824.57 2513.76,1822.68 2512.22,1820.56 2510.33,1817.24"/>
        <lane id=":1077515135_0_1" index="1" disallow="pedestrian bicycle tram rail_urban rail rail_electric rail_fast ship" speed="13.41" length="13.39" shape="2516.15,1829.46 2513.15,1826.65 2511.17,1824.61 2509.53,1822.32 2507.51,1818.75"/>
    </edge>
    <edge id=":1077515135_2" function="internal">
        <lane id=":1077515135_2_0" index="0" disallow="pedestrian bicycle tram rail_urban rail rail_electric rail_fast ship" speed="13.41" length="12.21" shape="2512.83,1829.57 2512.74,1825.77 2512.59,1823.13 2511.94,1820.62 2510.33,1817.24"/>
        <lane id=":1077515135_2_1" index="1" disallow="pedestrian bicycle tram rail_urban rail rail_electric rail_fast ship" speed="13.41" length="12.21" shape="2509.65,1830.00 2509.58,1826.54 2509.50,1824.12 2508.95,1821.83 2507.51,1818.75"/>
    </edge>
    <edge id=":1077515150_0" function="internal">
        <lane id=":1077515150_0_0" index="0" disallow="tram rail_urban rail rail_electric rail_fast ship" speed="3.65" length="4.67" shape="2551.39,1918.63 2552.71,1919.20 2553.60,1919.10 2554.06,1918.33 2554.07,1916.89"/>
    </edge>
    <edge id=":1077515152_0" function="internal">
        <lane id=":1077515152_0_0" index="0" disallow="pedestrian bicycle tram rail_urban rail rail_electric rail_fast ship" speed="13.41" length="6.06" shape="2504.88,1841.94 2510.87,1841.23"/>
        <lane id=":1077515152_0_1" index="1" disallow="pedestrian bicycle tram rail_urban rail rail_electric rail_fast ship" speed="13.41" length="6.06" shape="2504.47,1838.77 2510.51,1838.05"/>
    </edge>
    <edge id=":1077515152_2" function="internal">
        <lane id=":1077515152_2_0" index="0" disallow="pedestrian bicycle tram rail_urban rail rail_electric rail_fast ship" speed="12.09" length="7.65" shape="2504.47,1838.77 2506.76,1838.82 2508.44,1839.20 2509.98,1839.24 2511.82,1838.23"/>
        <lane id=":1077515152_2_1" index="1" disallow="pedestrian bicycle tram rail_urban rail rail_electric rail_fast ship" speed="10.99" length="6.27" shape="2504.47,1838.77 2506.25,1838.41 2507.38,1837.84 2508.39,1836.99 2509.79,1835.76"/>
    </edge>
    <edge id=":1077515156_0" function="internal">
        <lane id=":1077515156_0_0" index="0" disallow="pedestrian bicycle tram rail_urban rail rail_electric rail_fast ship" speed="13.41" length="6.01" shape="2515.99,1832.86 2509.70,1832.95"/>
        <lane id=":1077515156_0_1" index="1" disallow="pedestrian bicycle tram rail_urban rail rail_electric rail_fast ship" speed="13.41" length="6.01" shape="2515.64,1836.06 2509.90,1836.14"/>
    </edge>
    <edge id=":1077515156_2" function="internal">
        <lane id=":1077515156_2_0" index="0" disallow="pedestrian bicycle tram rail_urban rail rail_electric rail_fast ship" speed="13.41" length="2.47" shape="2512.97,1833.04 2512.84,1829.77"/>
        <lane id=":1077515156_2_1" index="1" disallow="pedestrian bicycle tram rail_urban rail rail_electric rail_fast ship" speed="13.41" length="2.47" shape="2509.69,1831.87 2509.66,1830.20"/>
    </edge>
    <edge id=":1081100073_0" function="internal">
        <lane id=":1081100073_0_0" index="0" disallow="tram rail_urban rail rail_electric rail_fast ship" speed="13.89" length="20.00" shape="925.29,527.56 916.34,545.44"/>
    </edge>
    <edge id=":1081100073_1" function="internal">
        <lane id=":1081100073_1_0" index="0" disallow="tram rail_urban rail rail_electric rail_fast ship" speed="13.89" length="5.95" shape="925.29,527.56 924.24,532.02 924.16,533.38"/>
    </edge>
    <edge id=":1081100073_2" function="internal">
        <lane id=":1081100073_2_0" index="0" disallow="tram rail_urban rail rail_electric rail_fast ship" speed="3.65" length="2.24" shape="925.29,527.56 925.55,528.98 926.06,529.58"/>
    </edge>
    <edge id=":1081100073_9" function="internal">
        <lane id=":1081100073_9_0" index="0" disallow="tram rail_urban rail rail_electric rail_fast ship" speed="13.89" length="14.80" shape="924.16,533.38 923.93,537.73 924.19,543.50 924.87,548.12"/>
    </edge>
    <edge id=":1081100073_10" function="internal">
        <lane id=":1081100073_10_0" index="0" disallow="tram rail_urban rail rail_electric rail_fast ship" speed="3.65" length="2.44" shape="926.06,529.58 926.13,529.66 927.02,529.61 928.23,528.83"/>
    </edge>
    <edge id=":1081100073_3" function="internal">
        <lane id=":1081100073_3_0" index="0" disallow="tram rail_urban rail rail_electric rail_fast ship" speed="13.89" length="19.54" shape="928.16,548.18 927.43,543.74 927.04,538.39 927.23,533.10 928.23,528.83"/>
    </edge>
    <edge id=":1081100073_4" function="internal">
        <lane id=":1081100073_4_0" index="0" disallow="tram rail_urban rail rail_electric rail_fast ship" speed="7.62" length="21.38" shape="928.16,548.18 925.90,541.21 923.18,538.43 919.99,539.84 916.34,545.44"/>
    </edge>
    <edge id=":1081100073_5" function="internal">
        <lane id=":1081100073_5_0" index="0" disallow="tram rail_urban rail rail_electric rail_fast ship" speed="3.69" length="4.81" shape="928.16,548.18 927.36,546.93 926.54,546.50 925.71,546.90 924.87,548.12"/>
    </edge>
    <edge id=":1081100073_6" function="internal">
        <lane id=":1081100073_6_0" index="0" disallow="tram rail_urban rail rail_electric rail_fast ship" speed="5.50" length="10.31" shape="919.14,546.99 920.92,544.24 922.47,543.52 923.78,544.81 924.87,548.12"/>
    </edge>
    <edge id=":1081100073_7" function="internal">
        <lane id=":1081100073_7_0" index="0" disallow="tram rail_urban rail rail_electric rail_fast ship" speed="13.89" length="20.31" shape="919.14,546.99 928.23,528.83"/>
    </edge>
    <edge id=":1081100073_8" function="internal">
        <lane id=":1081100073_8_0" index="0" disallow="tram rail_urban rail rail_electric rail_fast ship" speed="3.65" length="2.34" shape="919.14,546.99 919.02,545.55 918.52,544.81"/>
    </edge>
    <edge id=":1081100073_11" function="internal">
        <lane id=":1081100073_11_0" index="0" disallow="tram rail_urban rail rail_electric rail_fast ship" speed="3.65" length="2.34" shape="918.52,544.81 917.62,544.77 916.34,545.44"/>
    </edge>
    <edge id=":1087285123_0" function="internal">
        <lane id=":1087285123_0_0" index="0" disallow="tram rail_urban rail rail_electric rail_fast ship" speed="13.41" length="10.36" shape="997.12,425.81 996.66,428.67 997.25,430.71 998.17,432.81 998.71,435.81"/>
    </edge>
    <edge id=":1087285123_1" function="internal">
        <lane id=":1087285123_1_0" index="0" disallow="tram rail_urban rail rail_electric rail_fast ship" speed="13.41" length="8.99" shape="1001.92,436.06 1001.87,433.59 1002.00,431.89 1002.40,430.23 1003.18,427.88"/>
        <lane id=":1087285123_1_1" index="1" disallow="tram rail_urban rail rail_electric rail_fast ship" speed="13.41" length="8.99" shape="1001.92,436.06 1001.37,433.26 1000.41,431.36 999.76,429.50 1000.15,426.85"/>
    </edge>
    <edge id=":1095235162_0" function="internal">
        <lane id=":1095235162_0_0" index="0" disallow="tram rail_urban rail rail_electric rail_fast ship" speed="3.65" length="4.67" shape="2021.32,479.71 2021.50,478.28 2021.16,477.45 2020.30,477.23 2018.90,477.61"/>
    </edge>
    <edge id=":1115426591_0" function="internal">
        <lane id=":1115426591_0_0" index="0" disallow="tram rail_urban rail rail_electric rail_fast ship" speed="3.65" length="4.67" shape="1892.88,823.83 1894.32,823.83 1895.10,823.39 1895.21,822.51 1894.66,821.17"/>
    </edge>
    <edge id=":1154343582_0" function="internal">
        <lane id=":1154343582_0_0" index="0" disallow="tram rail_urban rail rail_electric rail_fast ship" speed="3.65" length="4.67" shape="2382.25,171.38 2380.84,171.08 2379.98,171.35 2379.69,172.20 2379.95,173.62"/>
    </edge>
    <edge id=":1184476469_0" function="internal">
        <lane id=":1184476469_0_0" index="0" disallow="tram rail_urban rail rail_electric rail_fast ship" speed="3.65" length="4.67" shape="2453.76,1468.34 2452.86,1467.22 2452.02,1466.90 2451.26,1467.37 2450.58,1468.64"/>
    </edge>
    <edge id=":126714_0" function="internal">
        <lane id=":126714_0_0" index="0" disallow="pedestrian bicycle tram rail_urban rail rail_electric rail_fast ship" speed="3.65" length="4.67" shape="580.54,1145.98 579.58,1147.06 579.39,1147.93 579.98,1148.61 581.34,1149.08"/>
    </edge>
    <edge id=":126715_0" function="internal">
        <lane id=":126715_0_0" index="0" disallow="pedestrian bicycle tram rail_urban rail rail_electric rail_fast ship" speed="6.03" length="9.07" shape="883.54,959.11 881.10,959.97 879.17,959.74 877.73,958.42 876.79,956.01"/>
    </edge>
    <edge id=":126715_1" function="internal">
        <lane id=":126715_1_0" index="0" disallow="pedestrian bicycle tram rail_urban rail rail_electric rail_fast ship" speed="13.41" length="11.29" shape="883.54,959.11 873.57,964.41"/>
    </edge>
    <edge id=":126715_2" function="internal">
        <lane id=":126715_2_0" index="0" disallow="pedestrian bicycle tram rail_urban rail rail_electric rail_fast ship" speed="3.65" length="2.34" shape="883.54,959.11 882.85,960.37 882.86,961.27"/>
    </edge>
    <edge id=":126715_9" function="internal">
        <lane id=":126715_9_0" index="0" disallow="pedestrian bicycle tram rail_urban rail rail_electric rail_fast ship" speed="3.65" length="2.34" shape="882.86,961.27 883.59,961.79 885.02,961.94"/>
    </edge>
    <edge id=":126715_3" function="internal">
        <lane id=":126715_3_0" index="0" disallow="pedestrian bicycle tram rail_urban rail rail_electric rail_fast ship" speed="13.41" length="11.24" shape="875.09,967.22 885.02,961.94"/>
    </edge>
    <edge id=":126715_4" function="internal">
        <lane id=":126715_4_0" index="0" disallow="pedestrian bicycle tram rail_urban rail rail_electric rail_fast ship" speed="8.28" length="3.60" shape="875.09,967.22 876.63,965.73 877.10,964.35"/>
    </edge>
    <edge id=":126715_5" function="internal">
        <lane id=":126715_5_0" index="0" disallow="pedestrian bicycle tram rail_urban rail rail_electric rail_fast ship" speed="3.65" length="2.34" shape="875.09,967.22 875.77,965.95 875.74,965.05"/>
    </edge>
    <edge id=":126715_10" function="internal">
        <lane id=":126715_10_0" index="0" disallow="pedestrian bicycle tram rail_urban rail rail_electric rail_fast ship" speed="8.28" length="8.45" shape="877.10,964.35 877.43,963.36 877.48,960.12 876.79,956.01"/>
    </edge>
    <edge id=":126715_11" function="internal">
        <lane id=":126715_11_0" index="0" disallow="pedestrian bicycle tram rail_urban rail rail_electric rail_fast ship" speed="3.65" length="2.34" shape="875.74,965.05 875.01,964.54 873.57,964.41"/>
    </edge>
    <edge id=":126715_6" function="internal">
        <lane id=":126715_6_0" index="0" disallow="pedestrian bicycle tram rail_urban rail rail_electric rail_fast ship" speed="6.84" length="7.96" shape="873.67,956.74 874.26,959.75 874.43,962.03 874.21,963.58 873.57,964.41"/>
    </edge>
    <edge id=":126715_7" function="internal">
        <lane id=":126715_7_0" index="0" disallow="pedestrian bicycle tram rail_urban rail rail_electric rail_fast ship" speed="7.62" length="15.25" shape="873.67,956.74 875.25,960.79 877.67,963.00 880.93,963.39 885.02,961.94"/>
    </edge>
    <edge id=":126715_8" function="internal">
        <lane id=":126715_8_0" index="0" disallow="tram rail_urban rail rail_electric rail_fast ship" speed="3.65" length="4.67" shape="873.67,956.74 874.72,957.73 875.59,957.93 876.28,957.36 876.79,956.01"/>
    </edge>
    <edge id=":126719_0" function="internal">
        <lane id=":126719_0_0" index="0" disallow="pedestrian bicycle tram rail_urban rail rail_electric rail_fast ship" speed="13.30" length="24.21" shape="1538.12,731.90 1545.91,731.08 1552.33,731.48 1557.36,733.12 1561.02,735.98"/>
        <lane id=":126719_0_1" index="1" disallow="pedestrian bicycle tram rail_urban rail rail_electric rail_fast ship" speed="13.41" length="24.85" shape="1537.58,728.75 1544.30,727.78 1550.09,727.71 1555.59,728.99 1561.43,732.11"/>
    </edge>
    <edge id=":126719_2" function="internal">
        <lane id=":126719_2_0" index="0" disallow="pedestrian bicycle tram rail_urban rail rail_electric rail_fast ship" speed="13.41" length="24.39" shape="1537.58,728.75 1561.82,726.02"/>
    </edge>
    <edge id=":126983_0" function="internal">
        <lane id=":126983_0_0" index="0" disallow="pedestrian bicycle tram rail_urban rail rail_electric rail_fast ship" speed="6.51" length="9.20" shape="1281.50,822.72 1279.08,823.30 1277.07,822.92 1275.45,821.60 1274.23,819.33"/>
    </edge>
    <edge id=":126983_1" function="internal">
        <lane id=":126983_1_0" index="0" disallow="pedestrian bicycle tram rail_urban rail rail_electric rail_fast ship" speed="13.41" length="14.58" shape="1281.50,822.72 1278.06,824.04 1274.67,825.24 1271.23,826.34 1267.69,827.36"/>
    </edge>
    <edge id=":126983_2" function="internal">
        <lane id=":126983_2_0" index="0" disallow="pedestrian bicycle tram rail_urban rail rail_electric rail_fast ship" speed="3.65" length="2.34" shape="1281.50,822.72 1280.69,823.91 1280.61,824.80"/>
    </edge>
    <edge id=":126983_9" function="internal">