<?xml version="1.0" encoding="UTF-8"?>

<!-- generated on 2022-05-07 12:35:33 by Eclipse SUMO netconvert Version 1.10.0
<configuration xmlns:xsi="http://www.w3.org/2001/XMLSchema-instance" xsi:noNamespaceSchemaLocation="http://sumo.dlr.de/xsd/netconvertConfiguration.xsd">

    <input>
        <type-files value="typemaps/osmNetconvertNoPed.typ.xml"/>
        <osm-files value="mapv2.osm"/>
    </input>

    <output>
        <output-file value="bath3.net.xml"/>
    </output>

    <projection>
        <proj.utm value="true"/>
    </projection>

    <processing>
        <lefthand value="true"/>
    </processing>

    <tls_building>
        <tls.discard-simple value="true"/>
        <tls.join value="true"/>
        <tls.guess-signals value="true"/>
        <tls.default-type value="actuated"/>
    </tls_building>

    <ramp_guessing>
        <ramps.guess value="true"/>
    </ramp_guessing>

    <junctions>
        <junctions.join value="true"/>
    </junctions>

    <report>
        <aggregate-warnings value="5"/>
    </report>

</configuration>
-->

<net version="1.9" junctionCornerDetail="5" lefthand="true" limitTurnSpeed="5.50" xmlns:xsi="http://www.w3.org/2001/XMLSchema-instance" xsi:noNamespaceSchemaLocation="http://sumo.dlr.de/xsd/net_file.xsd">

    <location netOffset="-542694.48,-5691444.89" convBoundary="0.00,-0.00,2631.48,2495.56" origBoundary="-2.389243,51.372456,-2.343025,51.394913" projParameter="+proj=utm +zone=30 +ellps=WGS84 +datum=WGS84 +units=m +no_defs"/>

    <type id="highway.bus_guideway" priority="1" numLanes="1" speed="27.78" allow="bus" oneway="1"/>
    <type id="highway.ford" priority="1" numLanes="1" speed="2.78" allow="army" oneway="0"/>
    <type id="highway.living_street" priority="2" numLanes="1" speed="2.78" disallow="tram rail_urban rail rail_electric rail_fast ship" oneway="0"/>
    <type id="highway.motorway" priority="14" numLanes="2" speed="39.44" allow="private emergency authority army vip passenger hov taxi bus coach delivery truck trailer motorcycle evehicle custom1 custom2" oneway="1"/>
    <type id="highway.motorway_link" priority="9" numLanes="1" speed="22.22" allow="private emergency authority army vip passenger hov taxi bus coach delivery truck trailer motorcycle evehicle custom1 custom2" oneway="1"/>
    <type id="highway.primary" priority="12" numLanes="2" speed="27.78" disallow="tram rail_urban rail rail_electric rail_fast ship" oneway="0"/>
    <type id="highway.primary_link" priority="7" numLanes="1" speed="22.22" disallow="tram rail_urban rail rail_electric rail_fast ship" oneway="0"/>
    <type id="highway.raceway" priority="15" numLanes="2" speed="83.33" allow="vip" oneway="0"/>
    <type id="highway.residential" priority="3" numLanes="1" speed="13.89" disallow="tram rail_urban rail rail_electric rail_fast ship" oneway="0"/>
    <type id="highway.secondary" priority="11" numLanes="1" speed="27.78" disallow="tram rail_urban rail rail_electric rail_fast ship" oneway="0"/>
    <type id="highway.secondary_link" priority="6" numLanes="1" speed="22.22" disallow="tram rail_urban rail rail_electric rail_fast ship" oneway="0"/>
    <type id="highway.tertiary" priority="10" numLanes="1" speed="22.22" disallow="tram rail_urban rail rail_electric rail_fast ship" oneway="0"/>
    <type id="highway.tertiary_link" priority="5" numLanes="1" speed="22.22" disallow="tram rail_urban rail rail_electric rail_fast ship" oneway="0"/>
    <type id="highway.trunk" priority="13" numLanes="2" speed="27.78" disallow="pedestrian bicycle tram rail_urban rail rail_electric rail_fast ship" oneway="0"/>
    <type id="highway.trunk_link" priority="8" numLanes="1" speed="22.22" disallow="pedestrian bicycle tram rail_urban rail rail_electric rail_fast ship" oneway="0"/>
    <type id="highway.unclassified" priority="4" numLanes="1" speed="13.89" disallow="tram rail_urban rail rail_electric rail_fast ship" oneway="0"/>
    <type id="highway.unsurfaced" priority="1" numLanes="1" speed="8.33" disallow="tram rail_urban rail rail_electric rail_fast ship" oneway="0"/>
    <type id="railway.highspeed" priority="21" numLanes="1" speed="69.44" allow="rail_fast" oneway="1"/>
    <type id="railway.light_rail" priority="19" numLanes="1" speed="27.78" allow="rail_urban" oneway="1"/>
    <type id="railway.preserved" priority="16" numLanes="1" speed="27.78" allow="rail" oneway="1"/>
    <type id="railway.rail" priority="20" numLanes="1" speed="44.44" allow="rail" oneway="1"/>
    <type id="railway.subway" priority="18" numLanes="1" speed="27.78" allow="rail_urban" oneway="1"/>
    <type id="railway.tram" priority="17" numLanes="1" speed="13.89" allow="tram" oneway="1"/>

    <edge id=":1033796566_0" function="internal">
        <lane id=":1033796566_0_0" index="0" disallow="pedestrian bicycle tram rail_urban rail rail_electric rail_fast ship" speed="13.41" length="0.11" shape="2164.42,1828.91 2164.36,1829.00"/>
    </edge>
    <edge id=":1033796566_1" function="internal">
        <lane id=":1033796566_1_0" index="0" disallow="pedestrian bicycle tram rail_urban rail rail_electric rail_fast ship" speed="13.41" length="0.32" shape="2166.92,1830.91 2167.10,1830.65"/>
    </edge>
    <edge id=":1033796802_0" function="internal">
        <lane id=":1033796802_0_0" index="0" disallow="bicycle tram rail_urban rail rail_electric rail_fast ship" speed="13.41" length="0.10" shape="2141.94,1862.48 2142.00,1862.41"/>
    </edge>
    <edge id=":1033796802_1" function="internal">
        <lane id=":1033796802_1_0" index="0" disallow="bicycle tram rail_urban rail rail_electric rail_fast ship" speed="13.41" length="0.10" shape="2144.42,1864.50 2144.48,1864.44"/>
    </edge>
    <edge id=":1035620161_0" function="internal">
        <lane id=":1035620161_0_0" index="0" disallow="tram rail_urban rail rail_electric rail_fast ship" speed="13.41" length="0.60" shape="1217.13,890.48 1216.96,890.41 1216.85,890.36 1216.74,890.32 1216.57,890.26"/>
    </edge>
    <edge id=":1035620161_1" function="internal">
        <lane id=":1035620161_1_0" index="0" disallow="tram rail_urban rail rail_electric rail_fast ship" speed="13.41" length="0.20" shape="1215.60,893.31 1215.66,893.33 1215.70,893.35 1215.74,893.36 1215.79,893.39"/>
    </edge>
    <edge id=":1035620186_0" function="internal">
        <lane id=":1035620186_0_0" index="0" disallow="tram rail_urban rail rail_electric rail_fast ship" speed="13.41" length="0.36" shape="1338.53,966.50 1338.42,966.49 1338.35,966.48 1338.28,966.46 1338.18,966.43"/>
    </edge>
    <edge id=":1035620186_1" function="internal">
        <lane id=":1035620186_1_0" index="0" disallow="tram rail_urban rail rail_electric rail_fast ship" speed="13.41" length="1.07" shape="1337.21,969.48 1337.51,969.57 1337.72,969.62 1337.94,969.66 1338.26,969.68"/>
    </edge>
    <edge id=":1035620202_0" function="internal">
        <lane id=":1035620202_0_0" index="0" disallow="tram rail_urban rail rail_electric rail_fast ship" speed="8.17" length="1.61" shape="1391.08,942.27 1390.82,941.88 1390.61,941.63 1390.35,941.42 1389.96,941.14"/>
    </edge>
    <edge id=":1035620202_1" function="internal">
        <lane id=":1035620202_1_0" index="0" disallow="tram rail_urban rail rail_electric rail_fast ship" speed="8.94" length="0.31" shape="1388.07,943.73 1388.33,943.91"/>
    </edge>
    <edge id=":1035711210_0" function="internal">
        <lane id=":1035711210_0_0" index="0" disallow="tram rail_urban rail rail_electric rail_fast ship" speed="13.41" length="0.92" shape="1824.34,586.47 1824.22,586.40 1824.14,586.36 1824.07,586.30 1823.97,586.20"/>
        <lane id=":1035711210_0_1" index="1" disallow="tram rail_urban rail rail_electric rail_fast ship" speed="13.41" length="0.92" shape="1822.87,589.31 1822.51,589.12 1822.27,588.97 1822.05,588.79 1821.75,588.51"/>
    </edge>
    <edge id=":1037902626_0" function="internal">
        <lane id=":1037902626_0_0" index="0" disallow="tram rail_urban rail rail_electric rail_fast ship" speed="13.89" length="0.23" shape="374.87,727.78 374.81,727.55"/>
    </edge>
    <edge id=":1040135943_0" function="internal">
        <lane id=":1040135943_0_0" index="0" disallow="tram rail_urban rail rail_electric rail_fast ship" speed="3.65" length="4.67" shape="335.05,1659.31 333.67,1658.90 332.80,1659.10 332.44,1659.92 332.60,1661.36"/>
    </edge>
    <edge id=":1040136028_0" function="internal">
        <lane id=":1040136028_0_0" index="0" disallow="tram rail_urban rail rail_electric rail_fast ship" speed="6.68" length="9.21" shape="284.62,1315.44 283.26,1317.60 281.55,1318.85 279.50,1319.19 277.11,1318.63"/>
    </edge>
    <edge id=":1040136028_1" function="internal">
        <lane id=":1040136028_1_0" index="0" disallow="tram rail_urban rail rail_electric rail_fast ship" speed="7.97" length="14.27" shape="284.62,1315.44 283.52,1319.20 283.90,1322.39 285.76,1325.01 289.10,1327.06"/>
    </edge>
    <edge id=":1040136028_2" function="internal">
        <lane id=":1040136028_2_0" index="0" disallow="tram rail_urban rail rail_electric rail_fast ship" speed="3.65" length="4.67" shape="284.62,1315.44 284.85,1316.86 285.41,1317.56 286.31,1317.53 287.53,1316.77"/>
    </edge>
    <edge id=":1040136028_3" function="internal">
        <lane id=":1040136028_3_0" index="0" disallow="tram rail_urban rail rail_electric rail_fast ship" speed="6.46" length="9.03" shape="290.37,1324.12 288.25,1322.83 287.07,1321.17 286.83,1319.15 287.53,1316.77"/>
    </edge>
    <edge id=":1040136028_4" function="internal">
        <lane id=":1040136028_4_0" index="0" disallow="tram rail_urban rail rail_electric rail_fast ship" speed="13.41" length="14.35" shape="290.37,1324.12 277.11,1318.63"/>
    </edge>
    <edge id=":1040136028_5" function="internal">
        <lane id=":1040136028_5_0" index="0" disallow="tram rail_urban rail rail_electric rail_fast ship" speed="3.65" length="2.34" shape="290.37,1324.12 288.95,1324.38 288.27,1324.96"/>
    </edge>
    <edge id=":1040136028_9" function="internal">
        <lane id=":1040136028_9_0" index="0" disallow="tram rail_urban rail rail_electric rail_fast ship" speed="3.65" length="2.34" shape="288.27,1324.96 288.32,1325.85 289.10,1327.06"/>
    </edge>
    <edge id=":1040136028_6" function="internal">
        <lane id=":1040136028_6_0" index="0" disallow="tram rail_urban rail rail_electric rail_fast ship" speed="13.41" length="14.26" shape="275.93,1321.61 289.10,1327.06"/>
    </edge>
    <edge id=":1040136028_7" function="internal">
        <lane id=":1040136028_7_0" index="0" disallow="tram rail_urban rail rail_electric rail_fast ship" speed="8.15" length="5.71" shape="275.93,1321.61 279.64,1322.49 281.51,1322.18"/>
    </edge>
    <edge id=":1040136028_8" function="internal">
        <lane id=":1040136028_8_0" index="0" disallow="tram rail_urban rail rail_electric rail_fast ship" speed="3.65" length="2.34" shape="275.93,1321.61 277.34,1321.30 278.01,1320.71"/>
    </edge>
    <edge id=":1040136028_10" function="internal">
        <lane id=":1040136028_10_0" index="0" disallow="tram rail_urban rail rail_electric rail_fast ship" speed="8.15" length="8.48" shape="281.51,1322.18 282.81,1321.97 285.44,1320.07 287.53,1316.77"/>
    </edge>
    <edge id=":1040136028_11" function="internal">
        <lane id=":1040136028_11_0" index="0" disallow="tram rail_urban rail rail_electric rail_fast ship" speed="3.65" length="2.34" shape="278.01,1320.71 277.93,1319.82 277.11,1318.63"/>
    </edge>
    <edge id=":1040170443_0" function="internal">
        <lane id=":1040170443_0_0" index="0" disallow="tram rail_urban rail rail_electric rail_fast ship" speed="13.41" length="0.50" shape="1156.15,1232.62 1155.59,1232.77"/>
        <lane id=":1040170443_0_1" index="1" disallow="tram rail_urban rail rail_electric rail_fast ship" speed="13.41" length="0.50" shape="1156.90,1235.73 1156.50,1235.84"/>
    </edge>
    <edge id=":1040170443_2" function="internal">
        <lane id=":1040170443_2_0" index="0" disallow="tram rail_urban rail rail_electric rail_fast ship" speed="13.41" length="0.17" shape="1158.32,1241.98 1158.40,1241.95"/>
        <lane id=":1040170443_2_1" index="1" disallow="tram rail_urban rail rail_electric rail_fast ship" speed="13.41" length="0.17" shape="1157.41,1238.91 1157.65,1238.84"/>
    </edge>
    <edge id=":1040170519_0" function="internal">
        <lane id=":1040170519_0_0" index="0" disallow="tram rail_urban rail rail_electric rail_fast ship" speed="13.41" length="0.20" shape="1306.96,1195.41 1306.81,1195.46"/>
        <lane id=":1040170519_0_1" index="1" disallow="tram rail_urban rail rail_electric rail_fast ship" speed="13.41" length="0.20" shape="1308.05,1198.42 1307.83,1198.50"/>
    </edge>
    <edge id=":1040170519_2" function="internal">
        <lane id=":1040170519_2_0" index="0" disallow="tram rail_urban rail rail_electric rail_fast ship" speed="13.41" length="0.35" shape="1309.85,1204.57 1310.21,1204.44"/>
        <lane id=":1040170519_2_1" index="1" disallow="tram rail_urban rail rail_electric rail_fast ship" speed="13.41" length="0.35" shape="1308.84,1201.53 1309.13,1201.43"/>
    </edge>
    <edge id=":1041147802_0" function="internal">
        <lane id=":1041147802_0_0" index="0" disallow="tram rail_urban rail rail_electric rail_fast ship" speed="8.94" length="1.06" shape="2031.46,1069.54 2031.54,1069.07 2031.57,1068.75 2031.55,1068.42 2031.48,1067.95"/>
        <lane id=":1041147802_0_1" index="1" disallow="tram rail_urban rail rail_electric rail_fast ship" speed="8.94" length="1.06" shape="2028.31,1068.99 2028.34,1068.83 2028.35,1068.72 2028.34,1068.61 2028.32,1068.46"/>
    </edge>
    <edge id=":1041808971_0" function="internal">
        <lane id=":1041808971_0_0" index="0" disallow="tram rail_urban rail rail_electric rail_fast ship" speed="13.89" length="0.32" shape="1818.71,932.55 1818.62,932.55 1818.55,932.54 1818.49,932.53 1818.40,932.51"/>
    </edge>
    <edge id=":1041809013_0" function="internal">
        <lane id=":1041809013_0_0" index="0" disallow="tram rail_urban rail rail_electric rail_fast ship" speed="13.89" length="0.10" shape="1835.37,921.33 1835.37,921.33"/>
    </edge>
    <edge id=":1041824268_0" function="internal">
        <lane id=":1041824268_0_0" index="0" disallow="tram rail_urban rail rail_electric rail_fast ship" speed="13.89" length="0.25" shape="1735.46,841.57 1735.53,841.57 1735.57,841.54 1735.61,841.50 1735.67,841.46"/>
    </edge>
    <edge id=":1046051232_0" function="internal">
        <lane id=":1046051232_0_0" index="0" allow="rail" speed="29.06" length="0.10" shape="1913.69,516.61 1913.69,516.61"/>
    </edge>
    <edge id=":1051587481_0" function="internal">
        <lane id=":1051587481_0_0" index="0" disallow="tram rail_urban rail rail_electric rail_fast ship" speed="13.89" length="14.90" shape="907.23,1492.71 892.35,1493.62"/>
    </edge>
    <edge id=":1051587481_1" function="internal">
        <lane id=":1051587481_1_0" index="0" disallow="tram rail_urban rail rail_electric rail_fast ship" speed="13.89" length="14.96" shape="906.96,1496.43 903.37,1495.32 899.74,1494.36 896.07,1493.73 892.35,1493.62"/>
    </edge>
    <edge id=":1052477155_0" function="internal">
        <lane id=":1052477155_0_0" index="0" disallow="tram rail_urban rail rail_electric rail_fast ship" speed="13.89" length="0.10" shape="998.66,1600.89 998.66,1600.89"/>
    </edge>
    <edge id=":1052477172_0" function="internal">
        <lane id=":1052477172_0_0" index="0" disallow="tram rail_urban rail rail_electric rail_fast ship" speed="13.89" length="8.16" shape="928.21,1515.88 928.01,1513.47 927.99,1511.78 928.32,1510.16 929.17,1507.91"/>
    </edge>
    <edge id=":1052477172_1" function="internal">
        <lane id=":1052477172_1_0" index="0" disallow="tram rail_urban rail rail_electric rail_fast ship" speed="10.17" length="8.27" shape="928.21,1515.88 927.97,1513.45 927.55,1511.78 926.65,1510.34 924.98,1508.59"/>
    </edge>
    <edge id=":1052563197_0" function="internal">
        <lane id=":1052563197_0_0" index="0" disallow="tram rail_urban rail rail_electric rail_fast ship" speed="13.89" length="0.50" shape="1028.86,1747.79 1028.81,1747.65 1028.78,1747.56 1028.77,1747.45 1028.76,1747.31"/>
    </edge>
    <edge id=":1052563197_1" function="internal">
        <lane id=":1052563197_1_0" index="0" disallow="tram rail_urban rail rail_electric rail_fast ship" speed="13.15" length="1.50" shape="1025.56,1747.50 1025.59,1747.94 1025.64,1748.24 1025.72,1748.54 1025.88,1748.95"/>
    </edge>
    <edge id=":1052633584_0" function="internal">
        <lane id=":1052633584_0_0" index="0" disallow="tram rail_urban rail rail_electric rail_fast ship" speed="13.89" length="1.57" shape="536.53,1633.37 536.60,1634.94"/>
    </edge>
    <edge id=":1052633584_1" function="internal">
        <lane id=":1052633584_1_0" index="0" disallow="tram rail_urban rail rail_electric rail_fast ship" speed="13.89" length="1.57" shape="533.40,1635.09 533.33,1633.52"/>
    </edge>
    <edge id=":1052633629_0" function="internal">
        <lane id=":1052633629_0_0" index="0" disallow="tram rail_urban rail rail_electric rail_fast ship" speed="13.89" length="0.27" shape="721.25,1768.50 721.51,1768.55"/>
    </edge>
    <edge id=":1060001075_0" function="internal">
        <lane id=":1060001075_0_0" index="0" disallow="tram rail_urban rail rail_electric rail_fast ship" speed="8.94" length="0.48" shape="2354.87,526.42 2354.78,526.52 2354.71,526.59 2354.64,526.65 2354.52,526.73"/>
    </edge>
    <edge id=":1060150154_0" function="internal">
        <lane id=":1060150154_0_0" index="0" disallow="tram rail_urban rail rail_electric rail_fast ship" speed="13.89" length="1.38" shape="2577.02,710.48 2576.94,710.88 2576.90,711.16 2576.90,711.44 2576.93,711.85"/>
    </edge>
    <edge id=":1060150154_1" function="internal">
        <lane id=":1060150154_1_0" index="0" disallow="tram rail_urban rail rail_electric rail_fast ship" speed="13.89" length="0.46" shape="2580.12,711.60 2580.11,711.47 2580.11,711.37 2580.13,711.28 2580.15,711.15"/>
    </edge>
    <edge id=":1060160480_0" function="internal">
        <lane id=":1060160480_0_0" index="0" disallow="tram rail_urban rail rail_electric rail_fast ship" speed="3.65" length="4.67" shape="2608.39,1151.16 2609.39,1150.12 2609.61,1149.25 2609.05,1148.56 2607.71,1148.03"/>
    </edge>
    <edge id=":1070633749_0" function="internal">
        <lane id=":1070633749_0_0" index="0" disallow="tram rail_urban rail rail_electric rail_fast ship" speed="8.94" length="1.64" shape="1780.25,1400.41 1779.76,1400.12 1779.42,1399.93 1779.06,1399.77 1778.54,1399.56"/>
        <lane id=":1070633749_0_1" index="1" disallow="tram rail_urban rail rail_electric rail_fast ship" speed="8.94" length="1.64" shape="1778.59,1403.14 1778.24,1402.94 1778.00,1402.80 1777.74,1402.69 1777.37,1402.54"/>
    </edge>
    <edge id=":1070633749_2" function="internal">
        <lane id=":1070633749_2_0" index="0" disallow="tram rail_urban rail rail_electric rail_fast ship" speed="8.94" length="0.55" shape="1775.02,1408.50 1775.10,1408.53 1775.15,1408.55 1775.20,1408.57 1775.27,1408.62"/>
        <lane id=":1070633749_2_1" index="1" disallow="tram rail_urban rail rail_electric rail_fast ship" speed="8.94" length="0.55" shape="1776.19,1405.52 1776.42,1405.61 1776.57,1405.68 1776.72,1405.76 1776.93,1405.88"/>
    </edge>
    <edge id=":1070654430_0" function="internal">
        <lane id=":1070654430_0_0" index="0" disallow="tram rail_urban rail rail_electric rail_fast ship" speed="8.94" length="7.70" shape="1862.19,1334.38 1864.22,1335.36 1865.51,1336.30 1866.44,1337.60 1867.39,1339.64"/>
    </edge>
    <edge id=":1075355233_0" function="internal">
        <lane id=":1075355233_0_0" index="0" disallow="pedestrian bicycle tram rail_urban rail rail_electric rail_fast ship" speed="13.41" length="0.27" shape="1083.98,802.64 1083.82,802.76"/>
        <lane id=":1075355233_0_1" index="1" disallow="pedestrian bicycle tram rail_urban rail rail_electric rail_fast ship" speed="13.41" length="0.27" shape="1085.88,805.22 1085.59,805.42"/>
    </edge>
    <edge id=":1075355245_0" function="internal">
        <lane id=":1075355245_0_0" index="0" disallow="pedestrian bicycle tram rail_urban rail rail_electric rail_fast ship" speed="13.41" length="1.54" shape="1096.49,816.50 1097.11,817.90"/>
    </edge>
    <edge id=":1075355263_0" function="internal">
        <lane id=":1075355263_0_0" index="0" disallow="pedestrian bicycle tram rail_urban rail rail_electric rail_fast ship" speed="13.41" length="14.10" shape="1076.37,807.44 1072.98,809.81 1070.48,811.16 1067.93,812.45 1064.39,814.62"/>
        <lane id=":1075355263_0_1" index="1" disallow="pedestrian bicycle tram rail_urban rail rail_electric rail_fast ship" speed="13.41" length="14.10" shape="1078.33,809.97 1074.89,812.38 1072.36,813.76 1069.77,815.06 1066.18,817.27"/>
    </edge>
    <edge id=":1075355263_2" function="internal">
        <lane id=":1075355263_2_0" index="0" disallow="pedestrian bicycle tram rail_urban rail rail_electric rail_fast ship" speed="13.41" length="17.00" shape="1082.86,814.01 1077.70,813.33 1074.01,813.39 1070.57,814.58 1066.18,817.27"/>
        <lane id=":1075355263_2_1" index="1" disallow="pedestrian bicycle tram rail_urban rail rail_electric rail_fast ship" speed="13.41" length="17.00" shape="1083.44,817.33 1078.66,816.64 1075.23,816.55 1072.04,817.50 1067.97,819.92"/>
    </edge>
    <edge id=":1075397336_0" function="internal">
        <lane id=":1075397336_0_0" index="0" disallow="tram rail_urban rail rail_electric rail_fast ship" speed="8.94" length="0.47" shape="1505.94,1123.62 1505.91,1123.56 1505.89,1123.52 1505.87,1123.47 1505.84,1123.41"/>
        <lane id=":1075397336_0_1" index="1" disallow="tram rail_urban rail rail_electric rail_fast ship" speed="8.94" length="0.47" shape="1503.19,1125.25 1503.08,1125.07 1503.02,1124.94 1502.96,1124.81 1502.88,1124.61"/>
    </edge>
    <edge id=":1075397336_2" function="internal">
        <lane id=":1075397336_2_0" index="0" disallow="tram rail_urban rail rail_electric rail_fast ship" speed="8.94" length="1.42" shape="1496.95,1127.03 1497.14,1127.48 1497.28,1127.79 1497.44,1128.09 1497.68,1128.51"/>
        <lane id=":1075397336_2_1" index="1" disallow="tram rail_urban rail rail_electric rail_fast ship" speed="8.94" length="1.42" shape="1499.91,1125.82 1500.05,1126.15 1500.15,1126.36 1500.26,1126.58 1500.44,1126.88"/>
    </edge>
    <edge id=":1075397406_0" function="internal">
        <lane id=":1075397406_0_0" index="0" disallow="tram rail_urban rail rail_electric rail_fast ship" speed="13.41" length="1.84" shape="1498.70,1106.01 1499.49,1107.51"/>
        <lane id=":1075397406_0_1" index="1" disallow="tram rail_urban rail rail_electric rail_fast ship" speed="13.41" length="1.84" shape="1495.75,1107.23 1496.65,1108.99"/>
    </edge>
    <edge id=":1075397406_2" function="internal">
        <lane id=":1075397406_2_0" index="0" disallow="tram rail_urban rail rail_electric rail_fast ship" speed="13.41" length="2.41" shape="1490.98,1111.96 1489.83,1109.68"/>
        <lane id=":1075397406_2_1" index="1" disallow="tram rail_urban rail rail_electric rail_fast ship" speed="13.41" length="2.41" shape="1493.82,1110.47 1492.79,1108.46"/>
    </edge>
    <edge id=":1077594324_0" function="internal">
        <lane id=":1077594324_0_0" index="0" disallow="tram rail_urban rail rail_electric rail_fast ship" speed="13.89" length="0.10" shape="2223.07,794.09 2223.09,794.18"/>
    </edge>
    <edge id=":1077594324_1" function="internal">
        <lane id=":1077594324_1_0" index="0" disallow="tram rail_urban rail rail_electric rail_fast ship" speed="13.89" length="0.10" shape="2219.92,794.61 2219.93,794.70"/>
    </edge>
    <edge id=":1081099958_0" function="internal">
        <lane id=":1081099958_0_0" index="0" disallow="tram rail_urban rail rail_electric rail_fast ship" speed="13.89" length="4.69" shape="1159.29,358.75 1161.56,354.65"/>
    </edge>
    <edge id=":1081099958_1" function="internal">
        <lane id=":1081099958_1_0" index="0" disallow="tram rail_urban rail rail_electric rail_fast ship" speed="13.89" length="4.82" shape="1164.42,356.09 1162.08,360.30"/>
    </edge>
    <edge id=":1081100073_0" function="internal">
        <lane id=":1081100073_0_0" index="0" disallow="tram rail_urban rail rail_electric rail_fast ship" speed="13.89" length="14.74" shape="1166.12,345.47 1164.58,348.84 1162.92,352.10 1161.18,355.33 1159.38,358.57"/>
    </edge>
    <edge id=":1081100073_1" function="internal">
        <lane id=":1081100073_1_0" index="0" disallow="tram rail_urban rail rail_electric rail_fast ship" speed="13.89" length="6.28" shape="1166.12,345.47 1165.06,349.88 1164.95,351.62"/>
    </edge>
    <edge id=":1081100073_2" function="internal">
        <lane id=":1081100073_2_0" index="0" disallow="tram rail_urban rail rail_electric rail_fast ship" speed="3.65" length="2.34" shape="1166.12,345.47 1166.38,346.89 1166.96,347.57"/>
    </edge>
    <edge id=":1081100073_9" function="internal">
        <lane id=":1081100073_9_0" index="0" disallow="tram rail_urban rail rail_electric rail_fast ship" speed="13.89" length="14.12" shape="1164.95,351.62 1164.72,355.47 1164.97,361.12 1165.63,365.69"/>
    </edge>
    <edge id=":1081100073_10" function="internal">
        <lane id=":1081100073_10_0" index="0" disallow="tram rail_urban rail rail_electric rail_fast ship" speed="3.65" length="2.34" shape="1166.96,347.57 1167.85,347.52 1169.06,346.73"/>
    </edge>
    <edge id=":1081100073_3" function="internal">
        <lane id=":1081100073_3_0" index="0" disallow="tram rail_urban rail rail_electric rail_fast ship" speed="13.89" length="19.20" shape="1168.92,365.74 1168.20,361.36 1167.84,356.13 1168.05,350.96 1169.06,346.73"/>
    </edge>
    <edge id=":1081100073_4" function="internal">
        <lane id=":1081100073_4_0" index="0" disallow="tram rail_urban rail rail_electric rail_fast ship" speed="7.15" length="18.27" shape="1168.92,365.74 1166.86,358.78 1164.59,355.26 1162.10,355.20 1159.38,358.57"/>
    </edge>
    <edge id=":1081100073_5" function="internal">
        <lane id=":1081100073_5_0" index="0" disallow="tram rail_urban rail rail_electric rail_fast ship" speed="3.69" length="4.81" shape="1168.92,365.74 1168.11,364.49 1167.30,364.07 1166.47,364.47 1165.63,365.69"/>
    </edge>
    <edge id=":1081100073_6" function="internal">
        <lane id=":1081100073_6_0" index="0" disallow="tram rail_urban rail rail_electric rail_fast ship" speed="4.99" length="8.05" shape="1162.18,360.12 1162.98,359.41 1163.83,360.10 1164.71,362.19 1165.63,365.69"/>
    </edge>
    <edge id=":1081100073_7" function="internal">
        <lane id=":1081100073_7_0" index="0" disallow="tram rail_urban rail rail_electric rail_fast ship" speed="13.89" length="15.06" shape="1162.18,360.12 1164.00,356.83 1165.79,353.51 1167.50,350.15 1169.06,346.73"/>
    </edge>
    <edge id=":1081100073_8" function="internal">
        <lane id=":1081100073_8_0" index="0" disallow="tram rail_urban rail rail_electric rail_fast ship" speed="3.65" length="2.34" shape="1162.18,360.12 1162.06,358.69 1161.56,357.95"/>
    </edge>
    <edge id=":1081100073_11" function="internal">
        <lane id=":1081100073_11_0" index="0" disallow="tram rail_urban rail rail_electric rail_fast ship" speed="3.65" length="2.34" shape="1161.56,357.95 1160.66,357.91 1159.38,358.57"/>
    </edge>
    <edge id=":1084841167_0" function="internal">
        <lane id=":1084841167_0_0" index="0" disallow="tram rail_urban rail rail_electric rail_fast ship" speed="13.89" length="0.50" shape="363.47,1047.25 363.46,1047.10 363.46,1047.00 363.44,1046.90 363.42,1046.75"/>
    </edge>
    <edge id=":1084841167_1" function="internal">
        <lane id=":1084841167_1_0" index="0" disallow="tram rail_urban rail rail_electric rail_fast ship" speed="13.89" length="0.17" shape="360.26,1047.26 360.27,1047.31 360.27,1047.34 360.28,1047.38 360.28,1047.43"/>
    </edge>
    <edge id=":1084841177_0" function="internal">
        <lane id=":1084841177_0_0" index="0" disallow="tram rail_urban rail rail_electric rail_fast ship" speed="13.89" length="0.71" shape="319.07,1016.43 319.06,1016.22 319.04,1016.08 319.02,1015.94 318.98,1015.73"/>
    </edge>
    <edge id=":1084841177_1" function="internal">
        <lane id=":1084841177_1_0" index="0" disallow="tram rail_urban rail rail_electric rail_fast ship" speed="13.89" length="0.24" shape="315.85,1016.38 315.86,1016.45 315.87,1016.50 315.87,1016.55 315.88,1016.61"/>
    </edge>
    <edge id=":1089649385_0" function="internal">
        <lane id=":1089649385_0_0" index="0" disallow="pedestrian bicycle tram rail_urban rail rail_electric rail_fast ship" speed="13.41" length="1.39" shape="915.17,923.34 913.58,924.11"/>
        <lane id=":1089649385_0_1" index="1" disallow="pedestrian bicycle tram rail_urban rail rail_electric rail_fast ship" speed="13.41" length="1.39" shape="913.85,920.43 912.98,920.97"/>
    </edge>
    <edge id=":1089649756_0" function="internal">
        <lane id=":1089649756_0_0" index="0" disallow="pedestrian bicycle tram rail_urban rail rail_electric rail_fast ship" speed="13.41" length="1.22" shape="921.40,922.79 921.58,922.76 921.70,922.75 921.83,922.77 922.00,922.80"/>
        <lane id=":1089649756_0_1" index="1" disallow="pedestrian bicycle tram rail_urban rail rail_electric rail_fast ship" speed="9.51" length="1.22" shape="920.89,919.63 921.42,919.55 921.80,919.53 922.17,919.57 922.69,919.68"/>
    </edge>
    <edge id=":1089649961_0" function="internal">
        <lane id=":1089649961_0_0" index="0" disallow="pedestrian bicycle tram rail_urban rail rail_electric rail_fast ship" speed="13.41" length="1.14" shape="959.58,956.29 959.97,956.73"/>
        <lane id=":1089649961_0_1" index="1" disallow="pedestrian bicycle tram rail_urban rail rail_electric rail_fast ship" speed="13.41" length="1.14" shape="961.20,953.53 960.39,953.53"/>