<?xml version="1.0" encoding="UTF-8"?>

<!-- generated on 2022-04-28 16:40:08 by Eclipse SUMO duarouter Version 1.10.0
<configuration xmlns:xsi="http://www.w3.org/2001/XMLSchema-instance" xsi:noNamespaceSchemaLocation="http://sumo.dlr.de/xsd/duarouterConfiguration.xsd">

    <input>
        <net-file value="../ltn/ltnGrid.net.xml"/>
        <route-files value="../ltn/ltnTrips.rou.xml"/>
    </input>

    <output>
        <output-file value="ltnRoutes.rou.xml"/>
        <alternatives-output value="ltnRoutes.rou.alt.xml"/>
    </output>

</configuration>
-->

<routes xmlns:xsi="http://www.w3.org/2001/XMLSchema-instance" xsi:noNamespaceSchemaLocation="http://sumo.dlr.de/xsd/routes_file.xsd">
    <vehicle id="0" depart="0.00">
        <route edges="gneE76 -gneE86"/>
    </vehicle>
    <vehicle id="1" depart="0.73">
        <route edges="gneE70 -gneE77 -gneE115 -gneE114 -gneE112 -gneE110 -gneE109 -gneE74 -gneE73 -gneE72 -gneE86 gneE86 gneE72"/>
    </vehicle>
    <vehicle id="2" depart="1.47">
        <route edges="gneE101 gneE96 -gneE85 -gneE75"/>
    </vehicle>
    <vehicle id="3" depart="2.20">
        <route edges="gneE100"/>
    </vehicle>
    <vehicle id="4" depart="2.94">
        <route edges="-gneE130"/>
    </vehicle>
    <vehicle id="5" depart="3.67">
        <route edges="gneE100"/>
    </vehicle>
    <vehicle id="6" depart="4.41">
        <route edges="-gneE88"/>
    </vehicle>
    <vehicle id="7" depart="5.14">
        <route edges="-gneE74 -gneE84 gneE97 gneE99 -gneE126"/>
    </vehicle>
    <vehicle id="8" depart="5.87">
        <route edges="gneE88 -gneE88 -gneE79 gneE67 gneE68 -gneE108 -gneE106 -gneE104 -gneE102 -gneE93 gneE86 -gneE76 -gneE61 -gneE60"/>
    </vehicle>
    <vehicle id="9" depart="6.61">
        <route edges="-gneE125"/>
    </vehicle>
    <vehicle id="10" depart="7.34">
        <route edges="gneE88 -gneE88 -gneE79 -gneE66 -gneE65 -gneE119 -gneE129"/>
    </vehicle>
    <vehicle id="11" depart="8.08">
        <route edges="-gneE132"/>
    </vehicle>
    <vehicle id="12" depart="8.81">
        <route edges="gneE110"/>
    </vehicle>
    <vehicle id="13" depart="9.55">
        <route edges="gneE100 -gneE103 -gneE102 -gneE93 gneE86 gneE72 -gneE75"/>
    </vehicle>
    <vehicle id="14" depart="10.28">
        <route edges="gneE119 gneE65 gneE66"/>
    </vehicle>
    <vehicle id="15" depart="11.01">
        <route edges="-gneE118"/>
    </vehicle>
    <vehicle id="16" depart="11.75">
        <route edges="-gneE118 -gneE116 -gneE114 -gneE112"/>
    </vehicle>
    <vehicle id="17" depart="12.48">
        <route edges="-gneE95 gneE94"/>
    </vehicle>
    <vehicle id="18" depart="13.22">
        <route edges="gneE84"/>
    </vehicle>
    <vehicle id="19" depart="13.95">
        <route edges="-gneE108 -gneE106"/>
    </vehicle>
    <vehicle id="20" depart="14.68">
        <route edges="-gneE79 gneE67 gneE68 -gneE123"/>
    </vehicle>
    <vehicle id="21" depart="15.42">
        <route edges="-gneE99 -gneE97 gneE84"/>
    </vehicle>
    <vehicle id="22" depart="16.15">
        <route edges="-gneE106 -gneE104"/>
    </vehicle>
    <vehicle id="23" depart="16.89">
        <route edges="gneE107 -gneE89 -gneE79 gneE67 gneE68 -gneE108 -gneE106 -gneE104 -gneE102 gneE94 -gneE94"/>
    </vehicle>
    <vehicle id="24" depart="17.62">
        <route edges="-gneE84 gneE97 gneE99 -gneE126"/>
    </vehicle>
    <vehicle id="25" depart="18.36">
        <route edges="-gneE108 -gneE106 -gneE104 -gneE102 gneE95 gneE96"/>
    </vehicle>
    <vehicle id="26" depart="19.09">
        <route edges="-gneE84 gneE97 gneE99 gneE100 -gneE103 gneE104"/>
    </vehicle>
    <vehicle id="27" depart="19.82">
        <route edges="gneE77"/>
    </vehicle>
    <vehicle id="28" depart="20.56">
        <route edges="gneE111 gneE61"/>
    </vehicle>
    <vehicle id="29" depart="21.29">
        <route edges="-gneE129"/>
    </vehicle>
    <vehicle id="30" depart="22.03">
        <route edges="-gneE92 -gneE91"/>
    </vehicle>
    <vehicle id="31" depart="22.76">
        <route edges="gneE65 gneE66 gneE67 gneE68 -gneE108 -gneE106 -gneE104 gneE103"/>
    </vehicle>
    <vehicle id="32" depart="23.50">
        <route edges="gneE100"/>
    </vehicle>
    <vehicle id="33" depart="24.23">
        <route edges="-gneE99 -gneE97 gneE84"/>
    </vehicle>
    <vehicle id="34" depart="24.96">
        <route edges="-gneE104 gneE103 -gneE100 -gneE125"/>
    </vehicle>
    <vehicle id="35" depart="25.70">
        <route edges="gneE68 -gneE123"/>
    </vehicle>
    <vehicle id="36" depart="26.43">
        <route edges="-gneE103 gneE104 gneE106 gneE108"/>
    </vehicle>
    <vehicle id="37" depart="27.17">
        <route edges="-gneE103 gneE104 gneE106 gneE108 -gneE68 -gneE67 -gneE66"/>
    </vehicle>
    <vehicle id="38" depart="27.90">
        <route edges="-gneE72 -gneE86 gneE86 gneE72 gneE73 -gneE84 gneE97 gneE99 gneE100 -gneE103 gneE104 gneE106 gneE108 -gneE68 -gneE67 -gneE66 -gneE65"/>
    </vehicle>
    <vehicle id="39" depart="28.64">
        <route edges="gneE76 gneE72 gneE73 -gneE84 gneE97 gneE99 -gneE126"/>
    </vehicle>
    <vehicle id="40" depart="29.37">
        <route edges="-gneE123"/>
    </vehicle>
    <vehicle id="41" depart="30.10">
        <route edges="gneE92 -gneE87"/>
    </vehicle>
    <vehicle id="42" depart="30.84">
        <route edges="-gneE116"/>
    </vehicle>
    <vehicle id="43" depart="31.57">
        <route edges="gneE113 gneE76 gneE72 gneE73 -gneE84 gneE97 gneE99 gneE100 -gneE103 gneE104 gneE106 gneE108 -gneE68 -gneE67 gneE79 gneE80 -gneE92 -gneE91"/>
    </vehicle>
    <vehicle id="44" depart="32.31">
        <route edges="-gneE92 -gneE91 -gneE89 -gneE79 gneE67 gneE68 -gneE108 -gneE106 -gneE104 gneE103 -gneE100"/>
    </vehicle>
    <vehicle id="45" depart="33.04">
        <route edges="gneE106 gneE108 -gneE68 -gneE67 -gneE66 -gneE65 -gneE119"/>
    </vehicle>
    <vehicle id="46" depart="33.78">
        <route edges="-gneE103 gneE104 gneE106 gneE108 -gneE68 -gneE67 -gneE66 -gneE65 -gneE119 -gneE130"/>
    </vehicle>
    <vehicle id="47" depart="34.51">
        <route edges="-gneE99"/>
    </vehicle>
    <vehicle id="48" depart="35.24">
        <route edges="gneE103 -gneE100 -gneE99 -gneE97 gneE84 gneE74 gneE109 -gneE132"/>
    </vehicle>
    <vehicle id="49" depart="35.98">
        <route edges="-gneE63 gneE77"/>
    </vehicle>
    <vehicle id="50" depart="36.71">
        <route edges="gneE103"/>
    </vehicle>
    <vehicle id="51" depart="37.45">
        <route edges="-gneE92 -gneE91 -gneE89 -gneE79 gneE67 gneE68 -gneE108 -gneE106 -gneE104 gneE103 -gneE100 -gneE125"/>
    </vehicle>
    <vehicle id="52" depart="38.18">
        <route edges="-gneE118 -gneE116 -gneE114 -gneE112 -gneE110 -gneE109 -gneE74 -gneE84 gneE97 gneE99 -gneE125"/>
    </vehicle>
    <vehicle id="53" depart="38.91">
        <route edges="-gneE118"/>
    </vehicle>
    <vehicle id="54" depart="39.65">
        <route edges="-gneE103 gneE104 gneE106 gneE108 -gneE68 -gneE67 -gneE66 -gneE65 -gneE119 -gneE130"/>
    </vehicle>
    <vehicle id="55" depart="40.38">
        <route edges="-gneE125"/>
    </vehicle>
    <vehicle id="56" depart="41.12">
        <route edges="-gneE132"/>
    </vehicle>
    <vehicle id="57" depart="41.85">
        <route edges="-gneE103 gneE104 gneE106 gneE108 -gneE68 -gneE67 gneE79 gneE80 -gneE92 -gneE105 gneE105"/>
    </vehicle>
    <vehicle id="58" depart="42.59">
        <route edges="-gneE67 -gneE66 -gneE65 -gneE119 -gneE118 -gneE116"/>
    </vehicle>
    <vehicle id="59" depart="43.32">
        <route edges="-gneE60 gneE60 gneE75 gneE73 -gneE84 gneE97"/>
    </vehicle>
    <vehicle id="60" depart="44.05">
        <route edges="-gneE118 -gneE116 -gneE114 -gneE112"/>
    </vehicle>
    <vehicle id="61" depart="44.79">
        <route edges="-gneE116"/>
    </vehicle>
    <vehicle id="62" depart="45.52">
        <route edges="-gneE108"/>
    </vehicle>
    <vehicle id="63" depart="46.26">
        <route edges="-gneE112 -gneE110 -gneE109 -gneE74 -gneE84 gneE97 gneE99 -gneE125"/>
    </vehicle>
    <vehicle id="64" depart="46.99">
        <route edges="-gneE97 gneE84 gneE74 gneE109 gneE110 gneE112 gneE114 gneE116 gneE118 -gneE130"/>
    </vehicle>
    <vehicle id="65" depart="47.73">
        <route edges="-gneE64 gneE78"/>
    </vehicle>
    <vehicle id="66" depart="48.46">
        <route edges="gneE98 gneE96 -gneE85 gneE73 gneE74 gneE109 gneE110 gneE112 gneE114 gneE115 gneE77 -gneE70 -gneE78"/>
    </vehicle>
    <vehicle id="67" depart="49.19">
        <route edges="-gneE106 -gneE104 gneE103"/>
    </vehicle>
    <vehicle id="68" depart="49.93">
        <route edges="-gneE70 -gneE78"/>
    </vehicle>
    <vehicle id="69" depart="50.66">
        <route edges="-gneE129"/>
    </vehicle>
    <vehicle id="70" depart="51.40">
        <route edges="-gneE124"/>
    </vehicle>
    <vehicle id="71" depart="52.13">
        <route edges="gneE68 -gneE124"/>
    </vehicle>
    <vehicle id="72" depart="52.87">
        <route edges="gneE97 gneE99 gneE100 -gneE103 gneE104 gneE106 gneE108 -gneE124"/>
    </vehicle>
    <vehicle id="73" depart="53.60">
        <route edges="-gneE82 gneE93 gneE95 gneE96 -gneE85 gneE73 gneE74 gneE109 gneE110 gneE112 gneE114 gneE115 gneE77 -gneE70 -gneE78"/>
    </vehicle>
    <vehicle id="74" depart="54.33">
        <route edges="-gneE123"/>
    </vehicle>
    <vehicle id="75" depart="55.07">
        <route edges="-gneE67 -gneE66 -gneE65 -gneE119 -gneE129"/>
    </vehicle>
    <vehicle id="76" depart="55.80">
        <route edges="-gneE116"/>
    </vehicle>
    <vehicle id="77" depart="56.54">
        <route edges="-gneE109 -gneE74 -gneE84 gneE97 gneE99 gneE100 -gneE103"/>
    </vehicle>
    <vehicle id="78" depart="57.27">
        <route edges="-gneE125"/>
    </vehicle>
    <vehicle id="79" depart="58.01">
        <route edges="-gneE65 -gneE119 -gneE118 -gneE116 -gneE114 -gneE112 -gneE110 -gneE132"/>
    </vehicle>
    <vehicle id="80" depart="58.74">
        <route edges="gneE88 -gneE88 -gneE79 gneE67 gneE68 -gneE108 -gneE106 -gneE104 -gneE102 -gneE93 gneE86 gneE72 gneE73"/>
    </vehicle>
    <vehicle id="81" depart="59.47">
        <route edges="-gneE118"/>
    </vehicle>
    <vehicle id="82" depart="60.21">
        <route edges="-gneE93 gneE86 gneE72 gneE73 gneE74 gneE109 gneE110 gneE112 gneE114 gneE115 -gneE62 gneE62 -gneE115 -gneE114 -gneE112 -gneE110"/>
    </vehicle>
    <vehicle id="83" depart="60.94">
        <route edges="-gneE69 gneE69 gneE70 -gneE77 -gneE115 gneE116 gneE118 gneE119 gneE65 gneE66 gneE67 gneE68 -gneE124"/>
    </vehicle>
    <vehicle id="84" depart="61.68">
        <route edges="-gneE118 -gneE116 -gneE114 -gneE112 -gneE110 -gneE109 -gneE74 -gneE84 gneE97 gneE99 -gneE125"/>
    </vehicle>
    <vehicle id="85" depart="62.41">
        <route edges="-gneE115"/>
    </vehicle>
    <vehicle id="86" depart="63.15">
        <route edges="-gneE88 -gneE79 gneE67 gneE68 -gneE108 -gneE106 -gneE104 gneE103 -gneE100 -gneE125"/>
    </vehicle>
    <vehicle id="87" depart="63.88">
        <route edges="gneE87 -gneE80 -gneE79 gneE67 gneE68 -gneE108 -gneE106 -gneE104 gneE103 -gneE100 -gneE125"/>
    </vehicle>
    <vehicle id="88" depart="64.61">
        <route edges="gneE95 -gneE98"/>
    </vehicle>
    <vehicle id="89" depart="65.35">
        <route edges="-gneE114 -gneE112 -gneE110 -gneE109 -gneE74 -gneE84 gneE97 gneE99 gneE100 -gneE103 -gneE102 -gneE93 -gneE81 gneE81 gneE93"/>
    </vehicle>
    <vehicle id="90" depart="66.08">
        <route edges="gneE76"/>
    </vehicle>
    <vehicle id="91" depart="66.82">
        <route edges="gneE65 gneE66 gneE67 gneE68 -gneE108 -gneE106 -gneE104 gneE103"/>
    </vehicle>
    <vehicle id="92" depart="67.55">
        <route edges="gneE78 -gneE69"/>
    </vehicle>
    <vehicle id="93" depart="68.28">
        <route edges="-gneE72 -gneE86 gneE86 gneE72 gneE73 gneE74 gneE109 gneE110 gneE112 gneE114 gneE115 gneE77 -gneE70 -gneE78"/>
    </vehicle>
    <vehicle id="94" depart="69.02">
        <route edges="-gneE109 -gneE74 -gneE84 gneE97 gneE99 -gneE126"/>
    </vehicle>
    <vehicle id="95" depart="69.75">
        <route edges="-gneE119 -gneE118 -gneE116 -gneE114 -gneE112"/>
    </vehicle>
    <vehicle id="96" depart="70.49">
        <route edges="-gneE78 -gneE63 -gneE115 -gneE114 -gneE112 -gneE110 -gneE131"/>
    </vehicle>
    <vehicle id="97" depart="71.22">
        <route edges="-gneE130"/>
    </vehicle>
    <vehicle id="98" depart="71.96">
        <route edges="-gneE114"/>
    </vehicle>
    <vehicle id="99" depart="72.69">
        <route edges="-gneE108 -gneE106 -gneE104 -gneE102 -gneE93 gneE86 gneE72 -gneE75"/>
    </vehicle>
    <vehicle id="100" depart="73.42">
        <route edges="gneE104 gneE106 gneE108 -gneE68 -gneE67"/>
    </vehicle>
    <vehicle id="101" depart="74.16">
        <route edges="-gneE93 gneE86 -gneE76 -gneE113"/>
    </vehicle>
    <vehicle id="102" depart="74.89">
        <route edges="gneE85 -gneE85 gneE73 -gneE84 gneE97 gneE99 gneE100 -gneE103 -gneE102 gneE94"/>
    </vehicle>
    <vehicle id="103" depart="75.63">
        <route edges="gneE70 -gneE77 -gneE115 gneE116 gneE118 gneE119 gneE65 gneE66 gneE79 gneE80 -gneE92"/>
    </vehicle>
    <vehicle id="104" depart="76.36">
        <route edges="-gneE73 -gneE72"/>
    </vehicle>
    <vehicle id="105" depart="77.10">
        <route edges="-gneE116"/>
    </vehicle>
    <vehicle id="106" depart="77.83">
        <route edges="-gneE103"/>
    </vehicle>
    <vehicle id="107" depart="78.56">
        <route edges="gneE109 gneE110 gneE112 gneE114 gneE116 gneE118 -gneE129"/>
    </vehicle>
    <vehicle id="108" depart="79.30">
        <route edges="gneE67 gneE68 -gneE124"/>
    </vehicle>
    <vehicle id="109" depart="80.03">
        <route edges="gneE112"/>
    </vehicle>
    <vehicle id="110" depart="80.77">
        <route edges="-gneE118 -gneE116 -gneE114 -gneE112 -gneE110 -gneE109 -gneE74 -gneE73 -gneE72 -gneE76 -gneE113 gneE113"/>
    </vehicle>
    <vehicle id="111" depart="81.50">
        <route edges="-gneE124"/>
    </vehicle>
    <vehicle id="112" depart="82.24">
        <route edges="-gneE74 -gneE84 gneE97 gneE99 -gneE126"/>
    </vehicle>
    <vehicle id="113" depart="82.97">
        <route edges="-gneE118 -gneE116 gneE115 -gneE62 gneE62 -gneE115 gneE116 gneE118 gneE119 gneE65 gneE66 gneE79 gneE88 -gneE88"/>
    </vehicle>
    <vehicle id="114" depart="83.70">
        <route edges="-gneE99"/>
    </vehicle>
    <vehicle id="115" depart="84.44">
        <route edges="-gneE112 -gneE110 -gneE109 -gneE74 -gneE84 gneE97 gneE99"/>
    </vehicle>
    <vehicle id="116" depart="85.17">
        <route edges="gneE64 -gneE64 -gneE63 -gneE115 gneE116 gneE118 gneE119 gneE65 gneE66 gneE67 gneE68 -gneE123"/>
    </vehicle>
    <vehicle id="117" depart="85.91">
        <route edges="gneE115 gneE77"/>
    </vehicle>
    <vehicle id="118" depart="86.64">
        <route edges="-gneE106 -gneE104 gneE103 -gneE100 -gneE99 -gneE97 gneE84 gneE74 gneE109 -gneE131"/>
    </vehicle>
    <vehicle id="119" depart="87.38">
        <route edges="gneE70 -gneE77 -gneE115 -gneE114 -gneE112 -gneE110 -gneE109 -gneE74 -gneE73 gneE85 -gneE85 gneE73"/>
    </vehicle>
    <vehicle id="120" depart="88.11">
        <route edges="-gneE68 -gneE67 -gneE66"/>
    </vehicle>
    <vehicle id="121" depart="88.84">
        <route edges="gneE118 -gneE130"/>
    </vehicle>
    <vehicle id="122" depart="89.58">
        <route edges="gneE119 gneE65 gneE66"/>
    </vehicle>
    <vehicle id="123" depart="90.31">
        <route edges="gneE74 gneE109 -gneE131"/>
    </vehicle>
    <vehicle id="124" depart="91.05">
        <route edges="gneE81 gneE82 gneE83"/>
    </vehicle>
    <vehicle id="125" depart="91.78">
        <route edges="-gneE71 -gneE77"/>
    </vehicle>
    <vehicle id="126" depart="92.51">
        <route edges="gneE110"/>
    </vehicle>
    <vehicle id="127" depart="93.25">
        <route edges="gneE119 gneE65 gneE66"/>
    </vehicle>
    <vehicle id="128" depart="93.98">
        <route edges="-gneE116 gneE115 -gneE62 gneE62 -gneE115 gneE116 gneE118 gneE119 gneE65 gneE66 gneE79 gneE80 -gneE92"/>
    </vehicle>
    <vehicle id="129" depart="94.72">
        <route edges="-gneE99 -gneE97 gneE84 gneE74 gneE109 -gneE132"/>
    </vehicle>
    <vehicle id="130" depart="95.45">
        <route edges="-gneE100 -gneE99 -gneE97 gneE84 gneE74 gneE109 -gneE131"/>
    </vehicle>
    <vehicle id="131" depart="96.19">
        <route edges="-gneE130"/>
    </vehicle>
    <vehicle id="132" depart="96.92">
        <route edges="-gneE108 -gneE106 -gneE104 gneE103 -gneE100 -gneE99 -gneE97 gneE84"/>
    </vehicle>
    <vehicle id="133" depart="97.65">
        <route edges="-gneE109 -gneE74"/>
    </vehicle>
    <vehicle id="134" depart="98.39">
        <route edges="-gneE68 -gneE67 -gneE66"/>
    </vehicle>
    <vehicle id="135" depart="99.12">
        <route edges="gneE114 gneE116 gneE118 gneE119"/>
    </vehicle>
    <vehicle id="136" depart="99.86">
        <route edges="-gneE73 gneE85 -gneE85 gneE73 gneE74 gneE109 gneE110 gneE112 gneE114 gneE115 gneE77 -gneE70 -gneE69"/>
    </vehicle>
    <vehicle id="137" depart="100.59">
        <route edges="gneE64 -gneE64 -gneE63 -gneE115 gneE116 gneE118 gneE119 gneE65 gneE66 gneE67 gneE68 -gneE124"/>
    </vehicle>
    <vehicle id="138" depart="101.33">
        <route edges="gneE109 gneE110 gneE112 gneE114"/>
    </vehicle>
    <vehicle id="139" depart="102.06">
        <route edges="-gneE123"/>
    </vehicle>
    <vehicle id="140" depart="102.79">
        <route edges="gneE110"/>
    </vehicle>
    <vehicle id="141" depart="103.53">
        <route edges="-gneE84 gneE97 gneE99 gneE100 -gneE103 gneE104"/>
    </vehicle>
    <vehicle id="142" depart="104.26">
        <route edges="gneE97"/>
    </vehicle>
    <vehicle id="143" depart="105.00">
        <route edges="gneE77 gneE71 -gneE71 -gneE77 -gneE115 -gneE114 -gneE112 -gneE110 -gneE109 -gneE74 -gneE84 gneE97 gneE99 -gneE125"/>
    </vehicle>
    <vehicle id="144" depart="105.73">
        <route edges="-gneE74 -gneE84 gneE97 gneE99 gneE100 -gneE103 gneE104 gneE106 gneE108 -gneE124"/>
    </vehicle>
    <vehicle id="145" depart="106.47">
        <route edges="gneE98 -gneE95 -gneE93 gneE86 -gneE76 -gneE113"/>
    </vehicle>
    <vehicle id="146" depart="107.20">
        <route edges="gneE65 gneE66 gneE67 gneE68 -gneE108 -gneE106 -gneE104 gneE103 -gneE100 -gneE126"/>
    </vehicle>
    <vehicle id="147" depart="107.93">
        <route edges="-gneE116 -gneE114 -gneE112 -gneE110 -gneE109 -gneE74 -gneE73 -gneE75 -gneE111 gneE111"/>
    </vehicle>
    <vehicle id="148" depart="108.67">
        <route edges="-gneE109 -gneE74 -gneE84 gneE97 gneE99 gneE100 -gneE103 gneE104 gneE106"/>
    </vehicle>
    <vehicle id="149" depart="109.40">
        <route edges="gneE60 -gneE111"/>
    </vehicle>
    <vehicle id="150" depart="110.14">
        <route edges="gneE70 -gneE77 -gneE115 gneE116 gneE118 gneE119 gneE65 gneE66 gneE79 gneE80 -gneE92"/>
    </vehicle>
    <vehicle id="151" depart="110.87">
        <route edges="gneE103 -gneE100 -gneE126"/>
    </vehicle>
    <vehicle id="152" depart="111.61">
        <route edges="-gneE110 -gneE131"/>
    </vehicle>
    <vehicle id="153" depart="112.34">
        <route edges="-gneE126"/>
    </vehicle>
    <vehicle id="154" depart="113.07">
        <route edges="-gneE68 -gneE67 -gneE66 -gneE65 -gneE119 -gneE118"/>
    </vehicle>
    <vehicle id="155" depart="113.81">
        <route edges="gneE75 gneE73 -gneE84 gneE97 gneE99 gneE100 -gneE103 gneE104 gneE106 gneE108 -gneE68 -gneE67 gneE79 gneE80 -gneE87 gneE87 -gneE80"/>
    </vehicle>
    <vehicle id="156" depart="114.54">
        <route edges="-gneE110 -gneE109"/>
    </vehicle>
    <vehicle id="157" depart="115.28">
        <route edges="gneE97"/>
    </vehicle>
    <vehicle id="158" depart="116.01">
        <route edges="-gneE116"/>
    </vehicle>
    <vehicle id="159" depart="116.74">
        <route edges="-gneE62 gneE62 -gneE115 -gneE114 -gneE112 -gneE110 -gneE109 -gneE74 -gneE73 -gneE75 -gneE60"/>
    </vehicle>
    <vehicle id="160" depart="117.48">
        <route edges="-gneE103 gneE104"/>
    </vehicle>
    <vehicle id="161" depart="118.21">
        <route edges="-gneE109 -gneE74"/>
    </vehicle>
    <vehicle id="162" depart="118.95">
        <route edges="-gneE132"/>
    </vehicle>
    <vehicle id="163" depart="119.68">
        <route edges="-gneE118 -gneE116 -gneE114 -gneE112 -gneE110 -gneE109 -gneE74"/>
    </vehicle>
    <vehicle id="164" depart="120.42">
        <route edges="gneE106 gneE108 -gneE68 -gneE67 -gneE66 -gneE65 -gneE119 -gneE130"/>
    </vehicle>
    <vehicle id="165" depart="121.15">
        <route edges="-gneE129"/>
    </vehicle>
    <vehicle id="166" depart="121.88">
        <route edges="gneE81 gneE82"/>
    </vehicle>
    <vehicle id="167" depart="122.62">
        <route edges="gneE75 gneE73 -gneE84 gneE97 gneE99 -gneE126"/>
    </vehicle>
    <vehicle id="168" depart="123.35">
        <route edges="-gneE118"/>
    </vehicle>
    <vehicle id="169" depart="124.09">
        <route edges="-gneE102 -gneE93 gneE86 gneE72 gneE73 gneE74 gneE109 gneE110 gneE112 gneE114 gneE116 gneE118 -gneE129"/>
    </vehicle>
    <vehicle id="170" depart="124.82">
        <route edges="gneE105 gneE92 -gneE80 -gneE79 -gneE66 -gneE65 -gneE119 -gneE129"/>
    </vehicle>
    <vehicle id="171" depart="125.56">
        <route edges="gneE98 -gneE95 gneE102 gneE104 gneE106 gneE108 -gneE68 -gneE67 gneE79 gneE88"/>
    </vehicle>
    <vehicle id="172" depart="126.29">
        <route edges="gneE66 gneE67 gneE68 -gneE108 -gneE106 -gneE104 gneE103 -gneE100 -gneE126"/>
    </vehicle>
    <vehicle id="173" depart="127.02">
        <route edges="gneE110 gneE112 gneE114 gneE115 gneE63 -gneE117 gneE117"/>
    </vehicle>
    <vehicle id="174" depart="127.76">
        <route edges="-gneE118 -gneE116 gneE115 gneE63 -gneE117 gneE117"/>
    </vehicle>
    <vehicle id="175" depart="128.49">
        <route edges="-gneE73 gneE85 -gneE85 gneE73 gneE74 gneE109 gneE110 gneE112 gneE114 gneE115 gneE77 -gneE70 -gneE78"/>
    </vehicle>
    <vehicle id="176" depart="129.23">
        <route edges="-gneE118"/>
    </vehicle>
    <vehicle id="177" depart="129.96">
        <route edges="-gneE114"/>
    </vehicle>
    <vehicle id="178" depart="130.70">
        <route edges="-gneE67 gneE79"/>
    </vehicle>
    <vehicle id="179" depart="131.43">
        <route edges="gneE67 gneE68 -gneE108 -gneE106 -gneE104 gneE103 -gneE100 -gneE126"/>
    </vehicle>
    <vehicle id="180" depart="132.16">
        <route edges="-gneE118 -gneE116 -gneE114 -gneE112"/>
    </vehicle>
    <vehicle id="181" depart="132.90">
        <route edges="gneE105 gneE92 -gneE80 -gneE79 -gneE66 -gneE65 -gneE119 -gneE118 -gneE116 gneE115 gneE77 gneE71 -gneE71 -gneE77"/>
    </vehicle>
    <vehicle id="182" depart="133.63">
        <route edges="gneE101 gneE96 -gneE85 gneE73 gneE74 gneE109 gneE110 gneE112 gneE114 gneE116 gneE118 -gneE129"/>
    </vehicle>
    <vehicle id="183" depart="134.37">
        <route edges="-gneE126"/>
    </vehicle>
    <vehicle id="184" depart="135.10">
        <route edges="-gneE118 -gneE116 -gneE114 -gneE112 -gneE110 -gneE109"/>
    </vehicle>
    <vehicle id="185" depart="135.84">
        <route edges="gneE103 -gneE100 -gneE99 -gneE97 gneE84 gneE74 gneE109 -gneE132"/>
    </vehicle>
    <vehicle id="186" depart="136.57">
        <route edges="gneE67 gneE68 -gneE108 -gneE106 -gneE104 gneE103 -gneE100 -gneE126"/>
    </vehicle>
    <vehicle id="187" depart="137.30">
        <route edges="gneE76 gneE72 gneE73 -gneE84 gneE97 gneE99 gneE100 -gneE103 -gneE102 gneE94"/>
    </vehicle>
    <vehicle id="188" depart="138.04">
        <route edges="gneE100"/>
    </vehicle>
    <vehicle id="189" depart="138.77">
        <route edges="-gneE116 gneE115 -gneE62 gneE62 -gneE115 gneE116 gneE118 gneE119 gneE65 gneE66 gneE79 gneE80 -gneE87 gneE87"/>
    </vehicle>
    <vehicle id="190" depart="139.51">
        <route edges="-gneE118"/>
    </vehicle>
    <vehicle id="191" depart="140.24">
        <route edges="gneE60 -gneE111"/>
    </vehicle>
    <vehicle id="192" depart="140.97">
        <route edges="-gneE108 -gneE106 -gneE104 gneE103 -gneE100 -gneE125"/>
    </vehicle>
    <vehicle id="193" depart="141.71">
        <route edges="gneE100"/>
    </vehicle>
    <vehicle id="194" depart="142.44">
        <route edges="gneE76 gneE72 gneE73 -gneE84 gneE97 gneE99 gneE100 -gneE103 gneE104"/>
    </vehicle>
    <vehicle id="195" depart="143.18">
        <route edges="-gneE105 gneE105 gneE92 -gneE80 -gneE79 gneE67 gneE68 -gneE108 -gneE106 -gneE104 gneE103 -gneE100 -gneE125"/>
    </vehicle>
    <vehicle id="196" depart="143.91">
        <route edges="-gneE114 -gneE112 -gneE110 -gneE109 -gneE74"/>
    </vehicle>
    <vehicle id="197" depart="144.65">
        <route edges="gneE107 -gneE89 -gneE79 -gneE66 -gneE65 -gneE119 -gneE118 -gneE116 gneE115 gneE77 -gneE70 -gneE78 -gneE63"/>
    </vehicle>
    <vehicle id="198" depart="145.38">
        <route edges="-gneE116 -gneE114 -gneE112 -gneE110 -gneE109 -gneE74 -gneE73 -gneE72 -gneE76 -gneE113 gneE113"/>
    </vehicle>
    <vehicle id="199" depart="146.11">
        <route edges="gneE100"/>
    </vehicle>
    <vehicle id="200" depart="146.85">
        <route edges="gneE88 -gneE88 -gneE79 -gneE66 -gneE65 -gneE119 -gneE118 -gneE116 gneE115 gneE63 gneE78 gneE70"/>
    </vehicle>
    <vehicle id="201" depart="147.58">
        <route edges="-gneE109 -gneE74"/>
    </vehicle>
    <vehicle id="202" depart="148.32">
        <route edges="-gneE93 gneE86 -gneE76 -gneE113"/>
    </vehicle>
    <vehicle id="203" depart="149.05">
        <route edges="-gneE76 -gneE61 gneE75 gneE73 gneE74 gneE109 gneE110 gneE112 gneE114 gneE116 gneE118 -gneE129"/>
    </vehicle>
    <vehicle id="204" depart="149.79">
        <route edges="-gneE116 gneE115 -gneE62 gneE62 -gneE115 gneE116 gneE118 gneE119 gneE65 gneE66 gneE79 gneE80 -gneE92"/>
    </vehicle>
    <vehicle id="205" depart="150.52">
        <route edges="-gneE83 -gneE96 -gneE101 gneE101 gneE96 -gneE85 -gneE75"/>
    </vehicle>
    <vehicle id="206" depart="151.25">
        <route edges="-gneE108"/>
    </vehicle>
    <vehicle id="207" depart="151.99">
        <route edges="-gneE77 -gneE115 gneE116 gneE118 -gneE129"/>
    </vehicle>
    <vehicle id="208" depart="152.72">
        <route edges="gneE100"/>
    </vehicle>
    <vehicle id="209" depart="153.46">
        <route edges="-gneE118 -gneE116 -gneE114 -gneE112 -gneE110 -gneE109 -gneE74"/>
    </vehicle>
    <vehicle id="210" depart="154.19">
        <route edges="gneE113"/>
    </vehicle>
    <vehicle id="211" depart="154.93">
        <route edges="-gneE73 gneE85 -gneE85 gneE73 gneE74 gneE109 gneE110 gneE112 gneE114 gneE115 gneE77 -gneE70 -gneE69"/>
    </vehicle>
    <vehicle id="212" depart="155.66">
        <route edges="-gneE75 -gneE111 gneE111 gneE75 gneE73 gneE74 gneE109 gneE110 gneE112 gneE114 gneE116 gneE118 -gneE130"/>
    </vehicle>
    <vehicle id="213" depart="156.39">
        <route edges="gneE100 -gneE103 gneE104 gneE106 gneE108 -gneE68 -gneE67 gneE79 gneE89 -gneE107 gneE107 -gneE89"/>
    </vehicle>
    <vehicle id="214" depart="157.13">
        <route edges="-gneE116 gneE115 -gneE62 gneE62 -gneE115 gneE116 gneE118 gneE119 gneE65 gneE66 gneE79 gneE80 -gneE87 gneE87"/>
    </vehicle>
    <vehicle id="215" depart="157.86">
        <route edges="-gneE116 -gneE114 -gneE112 -gneE110 -gneE109 -gneE74 -gneE73 -gneE75 -gneE111 gneE111"/>
    </vehicle>
    <vehicle id="216" depart="158.60">
        <route edges="gneE85 -gneE85 gneE73 -gneE84 gneE97 gneE99 gneE100 -gneE103 gneE104 gneE106"/>
    </vehicle>
    <vehicle id="217" depart="159.33">
        <route edges="-gneE99"/>
    </vehicle>
    <vehicle id="218" depart="160.07">
        <route edges="-gneE118"/>
    </vehicle>
    <vehicle id="219" depart="160.80">
        <route edges="-gneE109 -gneE74 -gneE73 gneE85 -gneE85 gneE73 gneE74 gneE109 gneE110 gneE112 gneE114 gneE115 gneE77 gneE71 -gneE71"/>
    </vehicle>
    <vehicle id="220" depart="161.53">
        <route edges="-gneE116 gneE115"/>
    </vehicle>
    <vehicle id="221" depart="162.27">
        <route edges="gneE65 gneE66 gneE67 gneE68 -gneE108 -gneE106 -gneE104 gneE103 -gneE100 -gneE126"/>
    </vehicle>
    <vehicle id="222" depart="163.00">
        <route edges="-gneE61 gneE75 gneE73 -gneE84 gneE97 gneE99 gneE100 -gneE103 -gneE102 gneE95 -gneE101"/>
    </vehicle>
    <vehicle id="223" depart="163.74">
        <route edges="-gneE116 gneE115"/>
    </vehicle>
    <vehicle id="224" depart="164.47">
        <route edges="gneE100 -gneE103 -gneE102 -gneE93"/>
    </vehicle>
    <vehicle id="225" depart="165.20">
        <route edges="gneE97 gneE99"/>
    </vehicle>
    <vehicle id="226" depart="165.94">
        <route edges="gneE92 -gneE80 -gneE79 gneE67 gneE68 -gneE108 -gneE106 -gneE104 -gneE102 -gneE93 gneE86 gneE72"/>
    </vehicle>
    <vehicle id="227" depart="166.67">
        <route edges="gneE119 gneE65 gneE66 gneE67 gneE68"/>
    </vehicle>
    <vehicle id="228" depart="167.41">
        <route edges="gneE70 -gneE77 -gneE115 -gneE114 -gneE112 -gneE110 -gneE109 -gneE74 -gneE84 gneE97 gneE99 gneE100 -gneE103 -gneE102 -gneE93 -gneE81 gneE81 gneE93"/>
    </vehicle>
    <vehicle id="229" depart="168.14">
        <route edges="gneE77 gneE71 -gneE71 -gneE77 -gneE115 gneE116 gneE118 gneE119 gneE65 gneE66 gneE67 gneE68 -gneE123"/>
    </vehicle>
    <vehicle id="230" depart="168.88">
        <route edges="-gneE99 -gneE97 gneE84 gneE74 gneE109 -gneE131"/>
    </vehicle>
    <vehicle id="231" depart="169.61">
        <route edges="-gneE114 -gneE112 -gneE110 -gneE109 -gneE74 -gneE73 -gneE72 -gneE86"/>
    </vehicle>
    <vehicle id="232" depart="170.34">
        <route edges="-gneE108 -gneE106 -gneE104 gneE103 -gneE100 -gneE125"/>
    </vehicle>
    <vehicle id="233" depart="171.08">
        <route edges="-gneE118"/>
    </vehicle>
    <vehicle id="234" depart="171.81">