<?xml version="1.0" encoding="UTF-8"?>
<!-- generated on 2022-04-20 11:26:18.185595 by $Id$ UNKNOWN
  options: -r basicRoutes.rou.xml -d expandedCounts.xml -o sampledRoutes.rou.xml
-->
<routes xmlns:xsi="http://www.w3.org/2001/XMLSchema-instance" xsi:noNamespaceSchemaLocation="http://sumo.dlr.de/xsd/routes_file.xsd">
<!-- begin="0.0" end="3600.0" -->
    <vehicle id="0" depart="0.00">
        <route edges="-gneE86 gneE93 gneE102 gneE104 gneE106 gneE108"/>
    </vehicle>
    <vehicle id="1" depart="0.49">
        <route edges="-gneE109 -gneE74 -gneE84 gneE97 gneE99"/>
    </vehicle>
    <vehicle id="2" depart="0.97">
        <route edges="-gneE103 gneE104 gneE106 gneE107"/>
    </vehicle>
    <vehicle id="3" depart="1.46">
        <route edges="gneE100 -gneE103"/>
    </vehicle>
    <vehicle id="4" depart="1.95">
        <route edges="gneE114 gneE116 gneE118 -gneE129"/>
    </vehicle>
    <vehicle id="5" depart="2.44">
        <route edges="gneE110 gneE112 gneE114 gneE116 gneE118 gneE119"/>
    </vehicle>
    <vehicle id="6" depart="2.92">
        <route edges="-gneE66 -gneE65 -gneE64 -gneE63"/>
    </vehicle>
    <vehicle id="7" depart="3.41">
        <route edges="-gneE116 -gneE114 -gneE112 -gneE110 -gneE109"/>
    </vehicle>
    <vehicle id="8" depart="3.90">
        <route edges="-gneE68"/>
    </vehicle>
    <vehicle id="9" depart="4.39">
        <route edges="gneE64 gneE65 gneE66 gneE67 gneE68 -gneE123"/>
    </vehicle>
    <vehicle id="10" depart="4.87">
        <route edges="-gneE74 -gneE84"/>
    </vehicle>
    <vehicle id="11" depart="5.36">
        <route edges="-gneE118"/>
    </vehicle>
    <vehicle id="12" depart="5.85">
        <route edges="gneE119"/>
    </vehicle>
    <vehicle id="13" depart="6.33">
        <route edges="gneE100 -gneE103 -gneE102 -gneE93 gneE86 -gneE76 -gneE113"/>
    </vehicle>
    <vehicle id="14" depart="6.82">
        <route edges="gneE108 -gneE68 -gneE67 -gneE66 -gneE65"/>
    </vehicle>
    <vehicle id="15" depart="7.31">
        <route edges="gneE98 -gneE95 gneE94 -gneE91 gneE90 -gneE67 -gneE66 -gneE65"/>
    </vehicle>
    <vehicle id="16" depart="7.80">
        <route edges="gneE91 -gneE105"/>
    </vehicle>
    <vehicle id="17" depart="8.28">
        <route edges="-gneE103 gneE104 gneE106 gneE108 -gneE123"/>
    </vehicle>
    <vehicle id="18" depart="8.77">
        <route edges="gneE115 gneE77 -gneE70"/>
    </vehicle>
    <vehicle id="19" depart="9.26">
        <route edges="gneE104 gneE105 gneE92 -gneE87 -gneE77 -gneE115"/>
    </vehicle>
    <vehicle id="20" depart="9.75">
        <route edges="-gneE118"/>
    </vehicle>
    <vehicle id="21" depart="10.23">
        <route edges="gneE112 gneE114 gneE116"/>
    </vehicle>
    <vehicle id="22" depart="10.72">
        <route edges="gneE85 -gneE96 -gneE95 gneE94 -gneE91"/>
    </vehicle>
    <vehicle id="23" depart="11.21">
        <route edges="-gneE89 gneE88 -gneE78 -gneE63 -gneE62 -gneE61 -gneE60"/>
    </vehicle>
    <vehicle id="24" depart="11.69">
        <route edges="-gneE116 gneE115"/>
    </vehicle>
    <vehicle id="25" depart="12.18">
        <route edges="gneE82 gneE83 gneE84 gneE74 gneE109 -gneE131"/>
    </vehicle>
    <vehicle id="26" depart="12.67">
        <route edges="gneE76 -gneE86 gneE93 gneE102 gneE104 gneE106 gneE108 -gneE124"/>
    </vehicle>
    <vehicle id="27" depart="13.16">
        <route edges="-gneE116 -gneE114 -gneE112"/>
    </vehicle>
    <vehicle id="28" depart="13.64">
        <route edges="gneE88 -gneE78 -gneE63 -gneE62 -gneE61"/>
    </vehicle>
    <vehicle id="29" depart="14.13">
        <route edges="gneE69 -gneE88 gneE89 -gneE107"/>
    </vehicle>
    <vehicle id="30" depart="14.62">
        <route edges="gneE71 -gneE86"/>
    </vehicle>
    <vehicle id="31" depart="15.11">
        <route edges="gneE91 -gneE105"/>
    </vehicle>
    <vehicle id="32" depart="15.59">
        <route edges="-gneE64 -gneE63 -gneE62 gneE76 -gneE86"/>
    </vehicle>
    <vehicle id="33" depart="16.08">
        <route edges="gneE119"/>
    </vehicle>
    <vehicle id="34" depart="16.57">
        <route edges="-gneE116 -gneE114 -gneE112 -gneE110 -gneE109 -gneE74"/>
    </vehicle>
    <vehicle id="35" depart="17.05">
        <route edges="-gneE68"/>
    </vehicle>
    <vehicle id="36" depart="17.54">
        <route edges="-gneE87 -gneE77 -gneE115 -gneE114 -gneE112 -gneE110 -gneE132"/>
    </vehicle>
    <vehicle id="37" depart="18.03">
        <route edges="gneE114 gneE116 gneE118 gneE119 gneE65"/>
    </vehicle>
    <vehicle id="38" depart="18.52">
        <route edges="-gneE123"/>
    </vehicle>
    <vehicle id="39" depart="19.00">
        <route edges="-gneE118 -gneE116 gneE115"/>
    </vehicle>
    <vehicle id="40" depart="19.49">
        <route edges="gneE96 -gneE85 -gneE75 -gneE111"/>
    </vehicle>
    <vehicle id="41" depart="19.98">
        <route edges="-gneE118"/>
    </vehicle>
    <vehicle id="42" depart="20.47">
        <route edges="gneE71"/>
    </vehicle>
    <vehicle id="43" depart="20.95">
        <route edges="gneE110 gneE112 gneE114 gneE116 gneE117"/>
    </vehicle>
    <vehicle id="44" depart="21.44">
        <route edges="-gneE116 gneE115"/>
    </vehicle>
    <vehicle id="45" depart="21.93">
        <route edges="gneE68 -gneE108 -gneE106 -gneE104 gneE103 -gneE100 -gneE126"/>
    </vehicle>
    <vehicle id="46" depart="22.41">
        <route edges="-gneE60 -gneE74"/>
    </vehicle>
    <vehicle id="47" depart="22.90">
        <route edges="gneE112 gneE114 gneE116 gneE118 gneE119 gneE65 gneE66 gneE67 gneE68 -gneE123"/>
    </vehicle>
    <vehicle id="48" depart="23.39">
        <route edges="-gneE130"/>
    </vehicle>
    <vehicle id="49" depart="23.88">
        <route edges="-gneE74 -gneE84 gneE97 gneE98 -gneE95"/>
    </vehicle>
    <vehicle id="50" depart="24.36">
        <route edges="-gneE110 -gneE109 -gneE74 -gneE84 gneE97 gneE99 -gneE125"/>
    </vehicle>
    <vehicle id="51" depart="24.85">
        <route edges="gneE69 -gneE88 gneE89 -gneE107"/>
    </vehicle>
    <vehicle id="52" depart="25.34">
        <route edges="gneE115"/>
    </vehicle>
    <vehicle id="53" depart="25.83">
        <route edges="-gneE93 gneE86 -gneE76 -gneE113 gneE114 gneE116 gneE118 -gneE130"/>
    </vehicle>
    <vehicle id="54" depart="26.31">
        <route edges="gneE111 gneE75 gneE85 -gneE96 -gneE101 -gneE103 gneE104 gneE106 gneE108"/>
    </vehicle>
    <vehicle id="55" depart="26.80">
        <route edges="gneE86 -gneE76 -gneE113 -gneE112 -gneE110"/>
    </vehicle>
    <vehicle id="56" depart="27.29">
        <route edges="gneE105 gneE92 -gneE87 -gneE77 -gneE115"/>
    </vehicle>
    <vehicle id="57" depart="27.77">
        <route edges="-gneE85 -gneE75 -gneE60"/>
    </vehicle>
    <vehicle id="58" depart="28.26">
        <route edges="gneE79 gneE80 gneE81 gneE82 gneE83 gneE97"/>
    </vehicle>
    <vehicle id="59" depart="28.75">
        <route edges="gneE97 gneE99 gneE100 -gneE103 gneE104 gneE106 gneE108 -gneE123"/>
    </vehicle>
    <vehicle id="60" depart="29.24">
        <route edges="gneE115 gneE77 gneE87 -gneE92 -gneE91 gneE90"/>
    </vehicle>
    <vehicle id="61" depart="29.72">
        <route edges="gneE68 -gneE123"/>
    </vehicle>
    <vehicle id="62" depart="30.21">
        <route edges="gneE119 gneE65 gneE66"/>
    </vehicle>
    <vehicle id="63" depart="30.70">
        <route edges="-gneE93 gneE86 -gneE76 -gneE113 -gneE112 -gneE110 -gneE132"/>
    </vehicle>
    <vehicle id="64" depart="31.19">
        <route edges="-gneE132"/>
    </vehicle>
    <vehicle id="65" depart="31.67">
        <route edges="-gneE90 gneE91 -gneE94 gneE95 -gneE98"/>
    </vehicle>
    <vehicle id="66" depart="32.16">
        <route edges="-gneE63"/>
    </vehicle>
    <vehicle id="67" depart="32.65">
        <route edges="-gneE102 -gneE93 gneE86 -gneE76 -gneE113 gneE114 gneE116 gneE118 -gneE129"/>
    </vehicle>
    <vehicle id="68" depart="33.13">
        <route edges="-gneE123"/>
    </vehicle>
    <vehicle id="69" depart="33.62">
        <route edges="gneE116 gneE118 gneE119 gneE65 gneE66 gneE67 gneE68 -gneE123"/>
    </vehicle>
    <vehicle id="70" depart="34.11">
        <route edges="-gneE68"/>
    </vehicle>
    <vehicle id="71" depart="34.60">
        <route edges="gneE69 gneE70 gneE71 gneE72 gneE73 -gneE84"/>
    </vehicle>
    <vehicle id="72" depart="35.08">
        <route edges="-gneE85 -gneE75 -gneE60"/>
    </vehicle>
    <vehicle id="73" depart="35.57">
        <route edges="gneE111 gneE61"/>
    </vehicle>
    <vehicle id="74" depart="36.06">
        <route edges="-gneE108 -gneE106 -gneE104 gneE103 -gneE100 -gneE99 -gneE97 gneE84 gneE74"/>
    </vehicle>
    <vehicle id="75" depart="36.55">
        <route edges="gneE78 -gneE88 -gneE79"/>
    </vehicle>
    <vehicle id="76" depart="37.03">
        <route edges="-gneE118"/>
    </vehicle>
    <vehicle id="77" depart="37.52">
        <route edges="-gneE93 gneE86 -gneE76 -gneE113 -gneE112 -gneE110"/>
    </vehicle>
    <vehicle id="78" depart="38.01">
        <route edges="-gneE103 gneE104 gneE106 gneE108 -gneE68"/>
    </vehicle>
    <vehicle id="79" depart="38.49">
        <route edges="gneE104 gneE105 gneE92 -gneE87"/>
    </vehicle>
    <vehicle id="80" depart="38.98">
        <route edges="-gneE89 gneE88 -gneE78 -gneE117 -gneE116 -gneE114 -gneE112 -gneE110 -gneE132"/>
    </vehicle>
    <vehicle id="81" depart="39.47">
        <route edges="-gneE98"/>
    </vehicle>
    <vehicle id="82" depart="39.96">
        <route edges="-gneE96 -gneE95 gneE94 -gneE91"/>
    </vehicle>
    <vehicle id="83" depart="40.44">
        <route edges="-gneE103 gneE104 gneE106 gneE108 -gneE68 -gneE67 -gneE66 -gneE65 -gneE119 -gneE130"/>
    </vehicle>
    <vehicle id="84" depart="40.93">
        <route edges="-gneE108 -gneE106 -gneE104"/>
    </vehicle>
    <vehicle id="85" depart="41.42">
        <route edges="-gneE104 gneE103"/>
    </vehicle>
    <vehicle id="86" depart="41.91">
        <route edges="gneE113 gneE76"/>
    </vehicle>
    <vehicle id="87" depart="42.39">
        <route edges="-gneE64 gneE78 -gneE88"/>
    </vehicle>
    <vehicle id="88" depart="42.88">
        <route edges="gneE97"/>
    </vehicle>
    <vehicle id="89" depart="43.37">
        <route edges="gneE82 gneE83 gneE97"/>
    </vehicle>
    <vehicle id="90" depart="43.85">
        <route edges="-gneE63"/>
    </vehicle>
    <vehicle id="91" depart="44.34">
        <route edges="-gneE99 -gneE97 gneE84 gneE74 gneE109 -gneE132"/>
    </vehicle>
    <vehicle id="92" depart="44.83">
        <route edges="gneE80 gneE81 gneE82"/>
    </vehicle>
    <vehicle id="93" depart="45.32">
        <route edges="gneE74 gneE109 -gneE132"/>
    </vehicle>
    <vehicle id="94" depart="45.80">
        <route edges="gneE112 gneE114 gneE116 gneE118 gneE119 gneE65 gneE66 gneE67"/>
    </vehicle>
    <vehicle id="95" depart="46.29">
        <route edges="gneE112 gneE114 gneE116 gneE118 gneE119 gneE65 gneE66 gneE67"/>
    </vehicle>
    <vehicle id="96" depart="46.78">
        <route edges="gneE60 gneE61 -gneE113"/>
    </vehicle>
    <vehicle id="97" depart="47.27">
        <route edges="gneE105 gneE92 -gneE87 gneE71 gneE72"/>
    </vehicle>
    <vehicle id="98" depart="47.75">
        <route edges="-gneE118 -gneE116 -gneE114 -gneE112 -gneE110 -gneE132"/>
    </vehicle>
    <vehicle id="99" depart="48.24">
        <route edges="-gneE108 -gneE106 -gneE104 gneE103 -gneE100 -gneE99 -gneE97 gneE84 gneE74 gneE109 -gneE131"/>
    </vehicle>
    <vehicle id="100" depart="48.73">
        <route edges="gneE71 -gneE86 gneE93"/>
    </vehicle>
    <vehicle id="101" depart="49.21">
        <route edges="-gneE109 -gneE74"/>
    </vehicle>
    <vehicle id="102" depart="49.70">
        <route edges="gneE69 gneE70 gneE71 gneE72 gneE73 -gneE84"/>
    </vehicle>
    <vehicle id="103" depart="50.19">
        <route edges="-gneE92"/>
    </vehicle>
    <vehicle id="104" depart="50.68">
        <route edges="gneE100 -gneE103 gneE104 gneE106 gneE107 -gneE89 gneE88"/>
    </vehicle>
    <vehicle id="105" depart="51.16">
        <route edges="gneE100"/>
    </vehicle>
    <vehicle id="106" depart="51.65">
        <route edges="gneE99 gneE100 -gneE103 gneE104 gneE106 gneE108 -gneE124"/>
    </vehicle>
    <vehicle id="107" depart="52.14">
        <route edges="gneE79 gneE80 -gneE92"/>
    </vehicle>
    <vehicle id="108" depart="52.63">
        <route edges="gneE71 -gneE86"/>
    </vehicle>
    <vehicle id="109" depart="53.11">
        <route edges="-gneE68 -gneE67 -gneE66"/>
    </vehicle>
    <vehicle id="110" depart="53.60">
        <route edges="gneE63 gneE64"/>
    </vehicle>
    <vehicle id="111" depart="54.09">
        <route edges="-gneE61 gneE75 gneE85 -gneE96 -gneE101"/>
    </vehicle>
    <vehicle id="112" depart="54.57">
        <route edges="-gneE131"/>
    </vehicle>
    <vehicle id="113" depart="55.06">
        <route edges="-gneE77 -gneE115 -gneE114"/>
    </vehicle>
    <vehicle id="114" depart="55.55">
        <route edges="gneE76 -gneE71"/>
    </vehicle>
    <vehicle id="115" depart="56.04">
        <route edges="gneE85 -gneE96"/>
    </vehicle>
    <vehicle id="116" depart="56.52">
        <route edges="gneE106 gneE108 -gneE124"/>
    </vehicle>
    <vehicle id="117" depart="57.01">
        <route edges="gneE100 -gneE103"/>
    </vehicle>
    <vehicle id="118" depart="57.50">
        <route edges="gneE71 -gneE86 gneE93 gneE102"/>
    </vehicle>
    <vehicle id="119" depart="57.99">
        <route edges="gneE94"/>
    </vehicle>
    <vehicle id="120" depart="58.47">
        <route edges="-gneE115 -gneE114 -gneE112 -gneE110"/>
    </vehicle>
    <vehicle id="121" depart="58.96">
        <route edges="-gneE109 -gneE74 -gneE84 gneE97 gneE99 gneE100 -gneE103 gneE104 gneE106 gneE108 -gneE123"/>
    </vehicle>
    <vehicle id="122" depart="59.45">
        <route edges="-gneE96"/>
    </vehicle>
    <vehicle id="123" depart="59.94">
        <route edges="-gneE86 gneE93 gneE94 -gneE91 gneE90"/>
    </vehicle>
    <vehicle id="124" depart="60.42">
        <route edges="-gneE103 gneE104 gneE106 gneE107 -gneE89"/>
    </vehicle>
    <vehicle id="125" depart="60.91">
        <route edges="-gneE114 -gneE112"/>
    </vehicle>
    <vehicle id="126" depart="61.40">
        <route edges="gneE111 gneE75 gneE85 -gneE96 -gneE101 -gneE103"/>
    </vehicle>
    <vehicle id="127" depart="61.88">
        <route edges="-gneE73"/>
    </vehicle>
    <vehicle id="128" depart="62.37">
        <route edges="-gneE131"/>
    </vehicle>
    <vehicle id="129" depart="62.86">
        <route edges="gneE110"/>
    </vehicle>
    <vehicle id="130" depart="63.35">
        <route edges="-gneE78 -gneE117 -gneE116 -gneE114 -gneE112 -gneE110"/>
    </vehicle>
    <vehicle id="131" depart="63.83">
        <route edges="-gneE108 -gneE106 -gneE104 gneE103 -gneE100 -gneE99 -gneE97 gneE84 gneE74 gneE109 -gneE131"/>
    </vehicle>
    <vehicle id="132" depart="64.32">
        <route edges="-gneE68 -gneE67"/>
    </vehicle>
    <vehicle id="133" depart="64.81">
        <route edges="-gneE60 gneE109 -gneE132"/>
    </vehicle>
    <vehicle id="134" depart="65.30">
        <route edges="gneE105 gneE92 gneE81"/>
    </vehicle>
    <vehicle id="135" depart="65.78">
        <route edges="gneE104"/>
    </vehicle>
    <vehicle id="136" depart="66.27">
        <route edges="-gneE104"/>
    </vehicle>
    <vehicle id="137" depart="66.76">
        <route edges="gneE63 gneE64 -gneE119 -gneE130"/>
    </vehicle>
    <vehicle id="138" depart="67.24">
        <route edges="-gneE108 -gneE106 -gneE104 gneE103 gneE101"/>
    </vehicle>
    <vehicle id="139" depart="67.73">
        <route edges="-gneE118 -gneE116 gneE115 gneE77 gneE87"/>
    </vehicle>
    <vehicle id="140" depart="68.22">
        <route edges="-gneE93 gneE86 -gneE76 -gneE113 -gneE112 -gneE110 -gneE132"/>
    </vehicle>
    <vehicle id="141" depart="68.71">
        <route edges="-gneE71 -gneE70 -gneE78"/>
    </vehicle>
    <vehicle id="142" depart="69.19">
        <route edges="-gneE117 -gneE116"/>
    </vehicle>
    <vehicle id="143" depart="69.68">
        <route edges="gneE76 -gneE86 gneE93 gneE102 gneE104 gneE106"/>
    </vehicle>
    <vehicle id="144" depart="70.17">
        <route edges="gneE96 -gneE85 -gneE75 -gneE111 gneE112 gneE114 gneE116 gneE118 -gneE130"/>
    </vehicle>
    <vehicle id="145" depart="70.66">
        <route edges="-gneE118"/>
    </vehicle>
    <vehicle id="146" depart="71.14">
        <route edges="gneE104"/>
    </vehicle>
    <vehicle id="147" depart="71.63">
        <route edges="-gneE97 gneE84 gneE74 gneE109 gneE110 gneE112 gneE114 gneE116 gneE118 -gneE129"/>
    </vehicle>
    <vehicle id="148" depart="72.12">
        <route edges="-gneE118 -gneE116 -gneE114 -gneE112 gneE111 gneE75 gneE85 -gneE96"/>
    </vehicle>
    <vehicle id="149" depart="72.60">
        <route edges="-gneE119 -gneE129"/>
    </vehicle>
    <vehicle id="150" depart="73.09">
        <route edges="-gneE77 -gneE62 -gneE61"/>
    </vehicle>
    <vehicle id="151" depart="73.58">
        <route edges="-gneE108 -gneE106 -gneE104 gneE103"/>
    </vehicle>
    <vehicle id="152" depart="74.07">
        <route edges="gneE100 -gneE103 gneE104 gneE106 gneE107 -gneE89 gneE88"/>
    </vehicle>
    <vehicle id="153" depart="74.55">
        <route edges="gneE101"/>
    </vehicle>
    <vehicle id="154" depart="75.04">
        <route edges="-gneE109 -gneE74 -gneE73 -gneE72 -gneE71"/>
    </vehicle>
    <vehicle id="155" depart="75.53">
        <route edges="gneE96 -gneE85 -gneE75 -gneE111 -gneE110"/>
    </vehicle>
    <vehicle id="156" depart="76.02">
        <route edges="gneE105 gneE92 -gneE87 gneE71 gneE72"/>
    </vehicle>
    <vehicle id="157" depart="76.50">
        <route edges="-gneE130"/>
    </vehicle>
    <vehicle id="158" depart="76.99">
        <route edges="gneE85 -gneE82"/>
    </vehicle>
    <vehicle id="159" depart="77.48">
        <route edges="gneE110"/>
    </vehicle>
    <vehicle id="160" depart="77.96">
        <route edges="-gneE116 -gneE114 -gneE112 gneE111 gneE75 gneE85 -gneE96"/>
    </vehicle>
    <vehicle id="161" depart="78.45">
        <route edges="gneE71"/>
    </vehicle>
    <vehicle id="162" depart="78.94">
        <route edges="-gneE91 gneE90 -gneE67"/>
    </vehicle>
    <vehicle id="163" depart="79.43">
        <route edges="-gneE108 -gneE106"/>
    </vehicle>
    <vehicle id="164" depart="79.91">
        <route edges="-gneE114 gneE113"/>
    </vehicle>
    <vehicle id="165" depart="80.40">
        <route edges="-gneE66 -gneE65 -gneE119 -gneE118"/>
    </vehicle>
    <vehicle id="166" depart="80.89">
        <route edges="gneE66 gneE67 gneE68 -gneE124"/>
    </vehicle>
    <vehicle id="167" depart="81.38">
        <route edges="-gneE73 -gneE72 -gneE71 -gneE70 -gneE78"/>
    </vehicle>
    <vehicle id="168" depart="81.86">
        <route edges="gneE113 gneE76 -gneE86 gneE93 gneE94"/>
    </vehicle>
    <vehicle id="169" depart="82.35">
        <route edges="gneE89 -gneE107 -gneE106 -gneE104 gneE103 -gneE100"/>
    </vehicle>
    <vehicle id="170" depart="82.84">
        <route edges="-gneE64 gneE78"/>
    </vehicle>
    <vehicle id="171" depart="83.32">
        <route edges="-gneE68 -gneE67 -gneE66"/>
    </vehicle>
    <vehicle id="172" depart="83.81">
        <route edges="-gneE112 -gneE110 -gneE109 -gneE74 -gneE84"/>
    </vehicle>
    <vehicle id="173" depart="84.30">
        <route edges="gneE112"/>
    </vehicle>
    <vehicle id="174" depart="84.79">
        <route edges="gneE99 gneE100 -gneE103 gneE104 gneE106 gneE108 -gneE124"/>
    </vehicle>
    <vehicle id="175" depart="85.27">
        <route edges="-gneE118 gneE117 gneE78 -gneE88"/>
    </vehicle>
    <vehicle id="176" depart="85.76">
        <route edges="-gneE112 gneE111 gneE75 gneE85"/>
    </vehicle>
    <vehicle id="177" depart="86.25">
        <route edges="-gneE118"/>
    </vehicle>
    <vehicle id="178" depart="86.74">
        <route edges="-gneE118 -gneE116 -gneE114 -gneE112 gneE111 gneE75 gneE85 -gneE96 -gneE101 -gneE100 -gneE126"/>
    </vehicle>
    <vehicle id="179" depart="87.22">
        <route edges="-gneE118"/>
    </vehicle>
    <vehicle id="180" depart="87.71">
        <route edges="-gneE80 -gneE79 -gneE66 -gneE65"/>
    </vehicle>
    <vehicle id="181" depart="88.20">
        <route edges="gneE85 -gneE96"/>
    </vehicle>
    <vehicle id="182" depart="88.68">
        <route edges="gneE106 gneE108 -gneE68 -gneE67"/>
    </vehicle>
    <vehicle id="183" depart="89.17">
        <route edges="-gneE97 gneE84 gneE74 gneE109 gneE110 gneE112 gneE114 gneE116"/>
    </vehicle>
    <vehicle id="184" depart="89.66">
        <route edges="-gneE97 gneE84 gneE74 gneE109"/>
    </vehicle>
    <vehicle id="185" depart="90.15">
        <route edges="-gneE132"/>
    </vehicle>
    <vehicle id="186" depart="90.63">
        <route edges="gneE83"/>
    </vehicle>
    <vehicle id="187" depart="91.12">
        <route edges="gneE96 -gneE85 -gneE75 -gneE111"/>
    </vehicle>
    <vehicle id="188" depart="91.61">
        <route edges="gneE114 gneE116 gneE118 gneE119 gneE65 gneE66 gneE67 gneE68 -gneE124"/>
    </vehicle>
    <vehicle id="189" depart="92.10">
        <route edges="-gneE72 -gneE76 -gneE113"/>
    </vehicle>
    <vehicle id="190" depart="92.58">
        <route edges="-gneE104 gneE103 -gneE100 -gneE99 -gneE97 gneE84 gneE74 gneE109 -gneE132"/>
    </vehicle>
    <vehicle id="191" depart="93.07">
        <route edges="gneE77 gneE87 -gneE92"/>
    </vehicle>
    <vehicle id="192" depart="93.56">
        <route edges="gneE106 gneE107 -gneE89 gneE88 -gneE78 -gneE117"/>
    </vehicle>
    <vehicle id="193" depart="94.04">
        <route edges="-gneE103 gneE104 gneE106 gneE107 -gneE89 gneE88"/>
    </vehicle>
    <vehicle id="194" depart="94.53">
        <route edges="-gneE118 gneE117 gneE78 -gneE88 gneE89"/>
    </vehicle>
    <vehicle id="195" depart="95.02">
        <route edges="gneE113 gneE76 -gneE71 -gneE70"/>
    </vehicle>
    <vehicle id="196" depart="95.51">
        <route edges="-gneE67 -gneE66 gneE69 gneE70 gneE71 gneE72"/>
    </vehicle>
    <vehicle id="197" depart="95.99">
        <route edges="-gneE116 -gneE114 -gneE112 -gneE110 -gneE131"/>
    </vehicle>
    <vehicle id="198" depart="96.48">
        <route edges="-gneE68 -gneE67"/>
    </vehicle>
    <vehicle id="199" depart="96.97">
        <route edges="gneE69 gneE70 gneE71 gneE72 gneE73 -gneE84"/>
    </vehicle>
    <vehicle id="200" depart="97.46">
        <route edges="-gneE67 -gneE66 -gneE65 -gneE119 -gneE118 -gneE116"/>
    </vehicle>
    <vehicle id="201" depart="97.94">
        <route edges="-gneE102 -gneE93 gneE86 -gneE76 -gneE61 -gneE60"/>
    </vehicle>
    <vehicle id="202" depart="98.43">
        <route edges="-gneE117 -gneE116 -gneE114 -gneE112 -gneE110 -gneE131"/>
    </vehicle>
    <vehicle id="203" depart="98.92">
        <route edges="-gneE108 -gneE106 -gneE104 gneE103 -gneE100"/>
    </vehicle>
    <vehicle id="204" depart="99.40">
        <route edges="-gneE77 -gneE115 -gneE114 -gneE112"/>
    </vehicle>
    <vehicle id="205" depart="99.89">
        <route edges="gneE75 gneE85 -gneE82 -gneE81 -gneE80"/>
    </vehicle>
    <vehicle id="206" depart="100.38">
        <route edges="-gneE109 -gneE74 -gneE84 -gneE83"/>
    </vehicle>
    <vehicle id="207" depart="100.87">
        <route edges="-gneE97 gneE84 gneE74 gneE109"/>
    </vehicle>
    <vehicle id="208" depart="101.35">
        <route edges="gneE100 -gneE103 gneE104 gneE106 gneE108"/>
    </vehicle>
    <vehicle id="209" depart="101.84">
        <route edges="-gneE73 -gneE72 -gneE71 -gneE77"/>
    </vehicle>
    <vehicle id="210" depart="102.33">
        <route edges="-gneE77 -gneE115 gneE116 gneE118 -gneE129"/>
    </vehicle>
    <vehicle id="211" depart="102.82">
        <route edges="-gneE111 gneE112 gneE114 gneE116 gneE118 -gneE130"/>
    </vehicle>
    <vehicle id="212" depart="103.30">
        <route edges="gneE105 gneE92 -gneE87 -gneE77 -gneE115 -gneE114"/>
    </vehicle>
    <vehicle id="213" depart="103.79">
        <route edges="gneE63 gneE64"/>
    </vehicle>
    <vehicle id="214" depart="104.28">
        <route edges="gneE77 gneE87 -gneE80"/>
    </vehicle>
    <vehicle id="215" depart="104.76">
        <route edges="-gneE99"/>
    </vehicle>
    <vehicle id="216" depart="105.25">
        <route edges="-gneE68 -gneE67 -gneE66 -gneE65 -gneE119 -gneE118 -gneE116 -gneE114"/>
    </vehicle>
    <vehicle id="217" depart="105.74">
        <route edges="-gneE67 -gneE66 -gneE65 -gneE119 -gneE118 -gneE116 -gneE114"/>
    </vehicle>
    <vehicle id="218" depart="106.23">
        <route edges="-gneE67 -gneE66 -gneE65 -gneE119 -gneE118 -gneE116 -gneE114"/>
    </vehicle>
    <vehicle id="219" depart="106.71">
        <route edges="-gneE89 gneE88 -gneE78 -gneE117 -gneE116 -gneE114 -gneE112 -gneE110 -gneE132"/>
    </vehicle>
    <vehicle id="220" depart="107.20">
        <route edges="-gneE125"/>
    </vehicle>
    <vehicle id="221" depart="107.69">
        <route edges="gneE112"/>
    </vehicle>
    <vehicle id="222" depart="108.18">
        <route edges="-gneE74 -gneE84"/>
    </vehicle>
    <vehicle id="223" depart="108.66">
        <route edges="gneE65"/>
    </vehicle>
    <vehicle id="224" depart="109.15">
        <route edges="-gneE130"/>
    </vehicle>
    <vehicle id="225" depart="109.64">
        <route edges="-gneE104"/>
    </vehicle>
    <vehicle id="226" depart="110.12">
        <route edges="-gneE65"/>
    </vehicle>
    <vehicle id="227" depart="110.61">
        <route edges="gneE101 gneE96 -gneE85 -gneE75 -gneE111 -gneE110"/>
    </vehicle>
    <vehicle id="228" depart="111.10">
        <route edges="-gneE130"/>
    </vehicle>
    <vehicle id="229" depart="111.59">
        <route edges="gneE119"/>
    </vehicle>
    <vehicle id="230" depart="112.07">
        <route edges="gneE119"/>
    </vehicle>
    <vehicle id="231" depart="112.56">
        <route edges="gneE76 -gneE86 gneE93 gneE102 gneE104 gneE106 gneE108 -gneE124"/>
    </vehicle>
    <vehicle id="232" depart="113.05">
        <route edges="gneE72 gneE73"/>
    </vehicle>
    <vehicle id="233" depart="113.54">
        <route edges="gneE105 gneE92 -gneE87 -gneE77 -gneE115"/>
    </vehicle>
    <vehicle id="234" depart="114.02">
        <route edges="gneE75 -gneE72 -gneE71"/>
    </vehicle>
    <vehicle id="235" depart="114.51">
        <route edges="gneE86 -gneE76 -gneE61"/>
    </vehicle>
    <vehicle id="236" depart="115.00">
        <route edges="gneE104 gneE106"/>
    </vehicle>
    <vehicle id="237" depart="115.48">
        <route edges="-gneE93 gneE86 -gneE76 -gneE113 gneE114 gneE116 gneE118 -gneE129"/>
    </vehicle>
    <vehicle id="238" depart="115.97">
        <route edges="-gneE114 -gneE112"/>
    </vehicle>
    <vehicle id="239" depart="116.46">
        <route edges="-gneE62"/>
    </vehicle>
    <vehicle id="240" depart="116.95">
        <route edges="gneE114 gneE116 gneE118 gneE119 gneE65 gneE66 gneE67 gneE68 -gneE123"/>
    </vehicle>
    <vehicle id="241" depart="117.43">
        <route edges="gneE112 gneE114 gneE116"/>
    </vehicle>
    <vehicle id="242" depart="117.92">
        <route edges="-gneE68 -gneE90 gneE91"/>
    </vehicle>
    <vehicle id="243" depart="118.41">
        <route edges="-gneE110 -gneE109 -gneE74 -gneE84 gneE97 gneE99 -gneE125"/>
    </vehicle>
    <vehicle id="244" depart="118.90">
        <route edges="-gneE76 -gneE113"/>
    </vehicle>
    <vehicle id="245" depart="119.38">
        <route edges="-gneE103 gneE104 gneE106 gneE107"/>
    </vehicle>
    <vehicle id="246" depart="119.87">
        <route edges="gneE63 gneE64 -gneE119 -gneE130"/>
    </vehicle>
    <vehicle id="247" depart="120.36">
        <route edges="-gneE65 -gneE119 -gneE118 -gneE116 -gneE114 -gneE112 -gneE110 -gneE131"/>
    </vehicle>
    <vehicle id="248" depart="120.84">
        <route edges="gneE100 -gneE103 gneE104 gneE106 gneE108 -gneE68 -gneE67 -gneE66 -gneE65"/>
    </vehicle>
    <vehicle id="249" depart="121.33">
        <route edges="-gneE116 -gneE114"/>
    </vehicle>
    <vehicle id="250" depart="121.82">
        <route edges="-gneE99 -gneE97 gneE84 gneE74 gneE109 -gneE131"/>
    </vehicle>
    <vehicle id="251" depart="122.31">
        <route edges="gneE119"/>
    </vehicle>
    <vehicle id="252" depart="122.79">
        <route edges="-gneE72 -gneE71 -gneE70 -gneE78"/>
    </vehicle>
    <vehicle id="253" depart="123.28">
        <route edges="-gneE89 gneE88 -gneE78 -gneE63 -gneE62 -gneE61"/>
    </vehicle>
    <vehicle id="254" depart="123.77">
        <route edges="gneE84 gneE74 gneE109 gneE110 gneE112 gneE114 gneE116"/>
    </vehicle>
    <vehicle id="255" depart="124.26">
        <route edges="-gneE63 -gneE62 -gneE61 -gneE60 -gneE74 -gneE84 gneE97"/>
    </vehicle>
    <vehicle id="256" depart="124.74">
        <route edges="gneE118 gneE119 gneE65 gneE66 gneE67 gneE68 -gneE123"/>
    </vehicle>
    <vehicle id="257" depart="125.23">
        <route edges="gneE85 -gneE96 -gneE95"/>
    </vehicle>
    <vehicle id="258" depart="125.72">
        <route edges="-gneE60 -gneE74 -gneE84"/>
    </vehicle>
    <vehicle id="259" depart="126.20">
        <route edges="gneE119"/>
    </vehicle>
    <vehicle id="260" depart="126.69">
        <route edges="gneE104 gneE106"/>
    </vehicle>
    <vehicle id="261" depart="127.18">
        <route edges="gneE88 -gneE78 -gneE117 -gneE116 -gneE114 -gneE112"/>
    </vehicle>
    <vehicle id="262" depart="127.67">
        <route edges="gneE88"/>
    </vehicle>
    <vehicle id="263" depart="128.15">
        <route edges="gneE113 gneE76"/>
    </vehicle>
    <vehicle id="264" depart="128.64">
        <route edges="gneE112 gneE114 gneE116 gneE118 gneE119 gneE65 gneE66"/>
    </vehicle>
    <vehicle id="265" depart="129.13">
        <route edges="gneE97"/>
    </vehicle>
    <vehicle id="266" depart="129.62">
        <route edges="-gneE118 -gneE116"/>
    </vehicle>
    <vehicle id="267" depart="130.10">
        <route edges="-gneE74 -gneE84 gneE97 gneE99 gneE100 -gneE103"/>