<?xml version="1.0" encoding="UTF-8"?>
<!-- generated on 2022-04-30 11:44:01.510624 by $Id$ UNKNOWN
  options: -r demand_testing/f10.rou.xml -d countData.xml -o sampledRoutes.rou.xml <doubleminus>optimize full
-->
<routes xmlns:xsi="http://www.w3.org/2001/XMLSchema-instance" xsi:noNamespaceSchemaLocation="http://sumo.dlr.de/xsd/routes_file.xsd">
<!-- begin="0.0" end="3600.0" -->
    <vehicle id="0" depart="0.00">
        <route edges="gneE133 gneE111 gneE75 gneE85 -gneE96 -gneE101 -gneE100 -gneE125"/>
    </vehicle>
    <vehicle id="1" depart="4.92">
        <route edges="gneE66 gneE67 gneE68 -gneE108 -gneE106 -gneE104 gneE103 -gneE100 -gneE126"/>
    </vehicle>
    <vehicle id="2" depart="9.85">
        <route edges="gneE70 gneE71 gneE72 gneE85 -gneE96 -gneE101 -gneE144"/>
    </vehicle>
    <vehicle id="3" depart="14.77">
        <route edges="gneE85 -gneE96 -gneE95"/>
    </vehicle>
    <vehicle id="4" depart="19.70">
        <route edges="gneE69 gneE70 gneE71 gneE72 gneE85 -gneE96"/>
    </vehicle>
    <vehicle id="5" depart="24.62">
        <route edges="gneE134 gneE113 gneE76 -gneE86 gneE93 gneE102 gneE103 -gneE100 -gneE126"/>
    </vehicle>
    <vehicle id="6" depart="29.55">
        <route edges="gneE78 -gneE88 gneE89 gneE90 -gneE140"/>
    </vehicle>
    <vehicle id="7" depart="34.47">
        <route edges="gneE87 -gneE92 -gneE105 -gneE104 gneE103 -gneE100 -gneE126"/>
    </vehicle>
    <vehicle id="8" depart="39.40">
        <route edges="gneE75 gneE85 -gneE96 -gneE95 gneE94"/>
    </vehicle>
    <vehicle id="9" depart="44.32">
        <route edges="gneE123 -gneE108 -gneE106 -gneE104 gneE103 -gneE100 -gneE99 -gneE97 gneE84 gneE74 gneE109 -gneE131"/>
    </vehicle>
    <vehicle id="10" depart="49.25">
        <route edges="-gneE107 -gneE106 -gneE104 gneE103 -gneE100 -gneE126"/>
    </vehicle>
    <vehicle id="11" depart="54.17">
        <route edges="gneE130 gneE119 gneE65 gneE66 gneE67 gneE68 -gneE108 -gneE106 -gneE104 gneE103 -gneE100"/>
    </vehicle>
    <vehicle id="12" depart="59.10">
        <route edges="gneE138 gneE69 gneE70 gneE71 gneE72 gneE85 -gneE96 -gneE101 -gneE144"/>
    </vehicle>
    <vehicle id="13" depart="64.02">
        <route edges="gneE138 gneE69 gneE70 gneE71 gneE72 gneE85 -gneE96 -gneE101 -gneE144"/>
    </vehicle>
    <vehicle id="14" depart="68.95">
        <route edges="gneE124 -gneE108 -gneE106 -gneE104 gneE103 -gneE100 -gneE126"/>
    </vehicle>
    <vehicle id="15" depart="73.87">
        <route edges="gneE93 gneE102 gneE103 -gneE100 -gneE126"/>
    </vehicle>
    <vehicle id="16" depart="78.80">
        <route edges="gneE112 gneE114 gneE116 gneE117 gneE78 -gneE88 gneE89 -gneE107 -gneE141"/>
    </vehicle>
    <vehicle id="17" depart="83.72">
        <route edges="gneE133 gneE111 gneE75 gneE85 -gneE96 -gneE101 -gneE100 -gneE125"/>
    </vehicle>
    <vehicle id="18" depart="88.65">
        <route edges="gneE143 gneE103 -gneE100 -gneE126"/>
    </vehicle>
    <vehicle id="19" depart="93.57">
        <route edges="gneE65 gneE66 gneE67 gneE68 -gneE108 -gneE106 -gneE104 gneE103 -gneE100 -gneE126"/>
    </vehicle>
    <vehicle id="20" depart="98.50">
        <route edges="gneE65 gneE66 gneE67 gneE68 -gneE108 -gneE106 -gneE104 gneE103 -gneE100 -gneE126"/>
    </vehicle>
    <vehicle id="21" depart="103.42">
        <route edges="gneE119 gneE65 gneE66 gneE67 gneE68 -gneE108 -gneE106 -gneE104 gneE103 -gneE100 -gneE126"/>
    </vehicle>
    <vehicle id="22" depart="108.34">
        <route edges="gneE60 gneE61 gneE62 gneE63 gneE78 -gneE88 gneE89 -gneE107 -gneE141"/>
    </vehicle>
    <vehicle id="23" depart="113.27">
        <route edges="gneE61 gneE62 gneE63 gneE78 -gneE88 gneE89 -gneE107 -gneE141"/>
    </vehicle>
    <vehicle id="24" depart="118.19">
        <route edges="-gneE92 -gneE105 -gneE104 gneE103 -gneE100 -gneE126"/>
    </vehicle>
    <vehicle id="25" depart="123.12">
        <route edges="-gneE81 -gneE80 gneE89 -gneE107 -gneE141"/>
    </vehicle>
    <vehicle id="26" depart="128.04">
        <route edges="gneE65 gneE66 gneE67 gneE68 -gneE108 -gneE106 -gneE104 gneE103 -gneE100 -gneE126"/>
    </vehicle>
    <vehicle id="27" depart="132.97">
        <route edges="gneE133 gneE111 gneE75 gneE85 -gneE96 -gneE101 -gneE100 -gneE125"/>
    </vehicle>
    <vehicle id="28" depart="137.89">
        <route edges="gneE85 -gneE96 -gneE95"/>
    </vehicle>
    <vehicle id="29" depart="142.82">
        <route edges="gneE136 gneE117 gneE78 -gneE88 gneE89 gneE91 -gneE94 gneE95"/>
    </vehicle>
    <vehicle id="30" depart="147.74">
        <route edges="gneE102 gneE103 -gneE100 -gneE126"/>
    </vehicle>
    <vehicle id="31" depart="152.67">
        <route edges="gneE119 gneE65 gneE66 gneE67 gneE68 -gneE108 -gneE106 -gneE104 gneE103 -gneE100 -gneE126"/>
    </vehicle>
    <vehicle id="32" depart="157.59">
        <route edges="gneE134 gneE113 gneE76 -gneE86 gneE93 gneE102 gneE103 -gneE100 -gneE125"/>
    </vehicle>
    <vehicle id="33" depart="162.52">
        <route edges="-gneE104 gneE103 -gneE100 -gneE125"/>
    </vehicle>
    <vehicle id="34" depart="167.44">
        <route edges="gneE130 gneE119 gneE65 gneE66 gneE67 gneE68 -gneE108 -gneE106 -gneE104 gneE103 -gneE100 -gneE125"/>
    </vehicle>
    <vehicle id="35" depart="172.37">
        <route edges="gneE76 -gneE86 gneE93 gneE102 gneE103 -gneE100 -gneE126"/>
    </vehicle>
    <vehicle id="36" depart="177.29">
        <route edges="gneE136 gneE117 gneE78 -gneE88 gneE89 gneE90 -gneE140"/>
    </vehicle>
    <vehicle id="37" depart="182.22">
        <route edges="-gneE96 -gneE101 -gneE103 gneE104 gneE106 gneE108 -gneE123"/>
    </vehicle>
    <vehicle id="38" depart="187.14">
        <route edges="gneE61 gneE62 gneE63 gneE78 -gneE88 gneE89 -gneE107 -gneE141"/>
    </vehicle>
    <vehicle id="39" depart="192.07">
        <route edges="gneE144 -gneE100"/>
    </vehicle>
    <vehicle id="40" depart="196.99">
        <route edges="-gneE88 gneE89 -gneE107 -gneE141"/>
    </vehicle>
    <vehicle id="41" depart="201.92">
        <route edges="gneE69 gneE70 gneE71 gneE72 gneE85 -gneE96 -gneE101"/>
    </vehicle>
    <vehicle id="42" depart="206.84">
        <route edges="gneE136 gneE117 gneE78 -gneE88 gneE89 -gneE107 gneE108 -gneE124"/>
    </vehicle>
    <vehicle id="43" depart="211.76">
        <route edges="gneE72 gneE85 -gneE96 -gneE101 -gneE144"/>
    </vehicle>
    <vehicle id="44" depart="216.69">
        <route edges="gneE102 gneE103 -gneE100 -gneE126"/>
    </vehicle>
    <vehicle id="45" depart="221.61">
        <route edges="-gneE104 gneE103 -gneE100 -gneE126"/>
    </vehicle>
    <vehicle id="46" depart="226.54">
        <route edges="gneE124 -gneE108 -gneE106 -gneE104 gneE103 -gneE100 -gneE125"/>
    </vehicle>
    <vehicle id="47" depart="231.46">
        <route edges="gneE102 gneE103 -gneE100 -gneE126"/>
    </vehicle>
    <vehicle id="48" depart="236.39">
        <route edges="gneE89 gneE91 -gneE94 gneE95 -gneE98 -gneE145"/>
    </vehicle>
    <vehicle id="49" depart="241.31">
        <route edges="gneE87 -gneE92 -gneE105 -gneE104 gneE103 -gneE100 -gneE126"/>
    </vehicle>
    <vehicle id="50" depart="246.24">
        <route edges="gneE142 -gneE104 gneE103 -gneE100 -gneE126"/>
    </vehicle>
    <vehicle id="51" depart="251.16">
        <route edges="gneE67 gneE68 -gneE108 -gneE106 -gneE104 gneE103 -gneE100 -gneE126"/>
    </vehicle>
    <vehicle id="52" depart="256.09">
        <route edges="-gneE101 -gneE100 -gneE126"/>
    </vehicle>
    <vehicle id="53" depart="261.01">
        <route edges="gneE139 gneE79 gneE89 -gneE107 -gneE141"/>
    </vehicle>
    <vehicle id="54" depart="265.94">
        <route edges="gneE66 gneE67 gneE68 -gneE108 -gneE106 -gneE104 gneE103 -gneE100 -gneE126"/>
    </vehicle>
    <vehicle id="55" depart="270.86">
        <route edges="-gneE72 -gneE71 -gneE70 -gneE88 gneE89 -gneE107 -gneE141"/>
    </vehicle>
    <vehicle id="56" depart="275.79">
        <route edges="gneE103 -gneE100 -gneE125"/>
    </vehicle>
    <vehicle id="57" depart="280.71">
        <route edges="gneE62 gneE63 gneE78 -gneE88 gneE89 -gneE107 -gneE141"/>
    </vehicle>
    <vehicle id="58" depart="285.64">
        <route edges="-gneE96 -gneE95 gneE94 -gneE91 gneE90 -gneE140"/>
    </vehicle>
    <vehicle id="59" depart="290.56">
        <route edges="gneE123 -gneE108 -gneE106 -gneE104 gneE103 -gneE100 -gneE125"/>
    </vehicle>
    <vehicle id="60" depart="295.49">
        <route edges="gneE111 gneE75 gneE85 -gneE96 -gneE95 gneE94 -gneE91 gneE90 -gneE140"/>
    </vehicle>
    <vehicle id="61" depart="300.41">
        <route edges="gneE130 gneE119 gneE65 gneE66 gneE67 gneE68 -gneE108 -gneE106 -gneE104 gneE103 -gneE100"/>
    </vehicle>
    <vehicle id="62" depart="305.34">
        <route edges="gneE68 -gneE108 -gneE106 -gneE104 gneE103 -gneE100 -gneE126"/>
    </vehicle>
    <vehicle id="63" depart="310.26">
        <route edges="gneE136 gneE117 gneE78 -gneE88 gneE89 -gneE107 -gneE106 -gneE142"/>
    </vehicle>
    <vehicle id="64" depart="315.18">
        <route edges="-gneE83 -gneE82 -gneE81 -gneE80 gneE89 -gneE107 -gneE141"/>
    </vehicle>
    <vehicle id="65" depart="320.11">
        <route edges="gneE140 -gneE90 gneE91 -gneE94 gneE95 -gneE101 -gneE100 -gneE126"/>
    </vehicle>
    <vehicle id="66" depart="325.03">
        <route edges="gneE130 gneE119 gneE65 gneE66 gneE67 gneE68 -gneE108 -gneE106 -gneE104 gneE103 -gneE100 -gneE125"/>
    </vehicle>
    <vehicle id="67" depart="329.96">
        <route edges="-gneE100 -gneE125"/>
    </vehicle>
    <vehicle id="68" depart="334.88">
        <route edges="gneE61 gneE62 gneE63 gneE78 -gneE88 gneE89 -gneE107 -gneE141"/>
    </vehicle>
    <vehicle id="69" depart="339.81">
        <route edges="gneE69 gneE70 gneE71 gneE72 gneE85 -gneE96"/>
    </vehicle>
    <vehicle id="70" depart="344.73">
        <route edges="gneE141 -gneE106 -gneE104 gneE103 -gneE100 -gneE125"/>
    </vehicle>
    <vehicle id="71" depart="349.66">
        <route edges="gneE115 gneE77 gneE87 -gneE92 -gneE105 -gneE104 gneE103 -gneE100 -gneE126"/>
    </vehicle>
    <vehicle id="72" depart="354.58">
        <route edges="gneE119 gneE65 gneE66 gneE67 gneE68 -gneE108 -gneE106 -gneE104 gneE103 -gneE100 -gneE126"/>
    </vehicle>
    <vehicle id="73" depart="359.51">
        <route edges="gneE141 -gneE106 -gneE104 gneE103 -gneE100 -gneE125"/>
    </vehicle>
    <vehicle id="74" depart="364.43">
        <route edges="-gneE104 gneE103 -gneE100 -gneE125"/>
    </vehicle>
    <vehicle id="75" depart="369.36">
        <route edges="gneE72 gneE85 -gneE96 -gneE101 -gneE144"/>
    </vehicle>
    <vehicle id="76" depart="374.28">
        <route edges="-gneE100 -gneE125"/>
    </vehicle>
    <vehicle id="77" depart="379.21">
        <route edges="-gneE88 gneE89 gneE91 -gneE94 gneE95 -gneE98 -gneE145"/>
    </vehicle>
    <vehicle id="78" depart="384.13">
        <route edges="gneE142 -gneE104 gneE103 -gneE100"/>
    </vehicle>
    <vehicle id="79" depart="389.06">
        <route edges="gneE62 gneE63 gneE78 -gneE88 gneE89 -gneE107 -gneE141"/>
    </vehicle>
    <vehicle id="80" depart="393.98">
        <route edges="-gneE96 -gneE101 -gneE103 gneE104 gneE106 gneE108 -gneE123"/>
    </vehicle>
    <vehicle id="81" depart="398.91">
        <route edges="-gneE96 -gneE101 -gneE100 -gneE126"/>
    </vehicle>
    <vehicle id="82" depart="403.83">
        <route edges="gneE78 -gneE88 gneE89 -gneE107 -gneE106 -gneE104 gneE103 -gneE100 -gneE126"/>
    </vehicle>
    <vehicle id="83" depart="408.76">
        <route edges="gneE136 gneE117 gneE78 -gneE88 gneE89 -gneE107 -gneE106 -gneE104 gneE103 -gneE100 -gneE125"/>
    </vehicle>
    <vehicle id="84" depart="413.68">
        <route edges="gneE135 gneE115 gneE77 gneE87 -gneE92 -gneE105 -gneE104 gneE103 -gneE100 -gneE125"/>
    </vehicle>
    <vehicle id="85" depart="418.60">
        <route edges="gneE102 gneE103 -gneE100 -gneE126"/>
    </vehicle>
    <vehicle id="86" depart="423.53">
        <route edges="gneE81 gneE82 -gneE96"/>
    </vehicle>
    <vehicle id="87" depart="428.45">
        <route edges="gneE136 gneE117 gneE78 -gneE88 gneE89 -gneE107 gneE108 -gneE123"/>
    </vehicle>
    <vehicle id="88" depart="433.38">
        <route edges="gneE69 -gneE88 gneE89 -gneE107 -gneE141"/>
    </vehicle>
    <vehicle id="89" depart="438.30">
        <route edges="gneE135 gneE115 gneE77 gneE87 -gneE92 -gneE105 -gneE104 gneE103 -gneE100 -gneE125"/>
    </vehicle>
    <vehicle id="90" depart="443.23">
        <route edges="-gneE104 gneE103 -gneE100 -gneE125"/>
    </vehicle>
    <vehicle id="91" depart="448.15">
        <route edges="gneE133 gneE111 gneE75 gneE85 -gneE96 -gneE101 -gneE103 gneE104 -gneE142"/>
    </vehicle>
    <vehicle id="92" depart="453.08">
        <route edges="gneE136 gneE117 gneE78 -gneE88 gneE89 gneE91 -gneE94"/>
    </vehicle>
    <vehicle id="93" depart="458.00">
        <route edges="gneE85 -gneE96 -gneE98 -gneE145"/>
    </vehicle>
    <vehicle id="94" depart="462.93">
        <route edges="gneE144 -gneE100 -gneE126"/>
    </vehicle>
    <vehicle id="95" depart="467.85">
        <route edges="-gneE104 gneE103 -gneE100 -gneE126"/>
    </vehicle>
    <vehicle id="96" depart="472.78">
        <route edges="gneE138 gneE69 gneE70 gneE71 gneE72 gneE85 -gneE96 -gneE101"/>
    </vehicle>
    <vehicle id="97" depart="477.70">
        <route edges="-gneE104 gneE103 -gneE100 -gneE126"/>
    </vehicle>
    <vehicle id="98" depart="482.63">
        <route edges="gneE136 gneE117 gneE78 -gneE88 gneE89 gneE91"/>
    </vehicle>
    <vehicle id="99" depart="487.55">
        <route edges="gneE136 gneE117 gneE78 -gneE88 gneE89 -gneE107 -gneE106"/>
    </vehicle>
    <vehicle id="100" depart="492.48">
        <route edges="-gneE118 -gneE116 -gneE114 -gneE112 gneE111 gneE75 gneE85 -gneE96 -gneE101 -gneE144"/>
    </vehicle>
    <vehicle id="101" depart="497.40">
        <route edges="gneE141 -gneE106 -gneE104 gneE103 -gneE100 -gneE126"/>
    </vehicle>
    <vehicle id="102" depart="502.33">
        <route edges="gneE144 -gneE100"/>
    </vehicle>
    <vehicle id="103" depart="507.25">
        <route edges="gneE143 gneE103 -gneE100 -gneE126"/>
    </vehicle>
    <vehicle id="104" depart="512.18">
        <route edges="gneE144 -gneE100"/>
    </vehicle>
    <vehicle id="105" depart="517.10">
        <route edges="-gneE88 gneE89 -gneE107 gneE108 -gneE123"/>
    </vehicle>
    <vehicle id="106" depart="522.02">
        <route edges="gneE135 gneE115 gneE77 gneE87 -gneE92 -gneE105 -gneE104 gneE103 -gneE100 -gneE125"/>
    </vehicle>
    <vehicle id="107" depart="526.95">
        <route edges="gneE146 -gneE83 -gneE96 -gneE101 -gneE144"/>
    </vehicle>
    <vehicle id="108" depart="531.87">
        <route edges="gneE123 -gneE108 -gneE106 -gneE104 gneE103 -gneE100"/>
    </vehicle>
    <vehicle id="109" depart="536.80">
        <route edges="gneE136 gneE117 gneE78 -gneE88 gneE89 -gneE107 -gneE106 -gneE104 gneE103 -gneE100 -gneE125"/>
    </vehicle>
    <vehicle id="110" depart="541.72">
        <route edges="gneE135 gneE115 gneE77 gneE87 -gneE92 -gneE105 -gneE104 gneE103 -gneE100 -gneE125"/>
    </vehicle>
    <vehicle id="111" depart="546.65">
        <route edges="gneE66 gneE67 gneE68 -gneE108 -gneE106 -gneE104 gneE103 -gneE100 -gneE126"/>
    </vehicle>
    <vehicle id="112" depart="551.57">
        <route edges="gneE146 -gneE83 -gneE96 -gneE101 -gneE144"/>
    </vehicle>
    <vehicle id="113" depart="556.50">
        <route edges="gneE139 gneE79 gneE80 gneE81 gneE82 -gneE96 -gneE101"/>
    </vehicle>
    <vehicle id="114" depart="561.42">
        <route edges="gneE87 -gneE92 -gneE105 -gneE104 gneE103 -gneE100 -gneE126"/>
    </vehicle>
    <vehicle id="115" depart="566.35">
        <route edges="gneE89 -gneE107 -gneE141"/>
    </vehicle>
    <vehicle id="116" depart="571.27">
        <route edges="-gneE104 gneE103 -gneE100 -gneE125"/>
    </vehicle>
    <vehicle id="117" depart="576.20">
        <route edges="-gneE72 -gneE71 -gneE70 -gneE88 gneE89 -gneE107 -gneE141"/>
    </vehicle>
    <vehicle id="118" depart="581.12">
        <route edges="gneE138 gneE69 -gneE88 gneE89 -gneE107"/>
    </vehicle>
    <vehicle id="119" depart="586.05">
        <route edges="-gneE96 -gneE95 gneE94 -gneE91 gneE90 -gneE140"/>
    </vehicle>
    <vehicle id="120" depart="590.97">
        <route edges="gneE79 gneE89"/>
    </vehicle>
    <vehicle id="121" depart="595.90">
        <route edges="gneE141 -gneE106 -gneE104 gneE103 -gneE100 -gneE125"/>
    </vehicle>
    <vehicle id="122" depart="600.82">
        <route edges="-gneE104 gneE103 -gneE100 -gneE126"/>
    </vehicle>
    <vehicle id="123" depart="605.75">
        <route edges="gneE78 -gneE88 gneE89 -gneE107 -gneE106 -gneE104 gneE103 -gneE100 -gneE126"/>
    </vehicle>
    <vehicle id="124" depart="610.67">
        <route edges="-gneE88 gneE89 -gneE107 -gneE141"/>
    </vehicle>
    <vehicle id="125" depart="615.60">
        <route edges="gneE123 -gneE108 -gneE106 -gneE104 gneE103 -gneE100 -gneE126"/>
    </vehicle>
    <vehicle id="126" depart="620.52">
        <route edges="gneE123 -gneE108 -gneE106 -gneE104 gneE103 -gneE100"/>
    </vehicle>
    <vehicle id="127" depart="625.44">
        <route edges="gneE143 gneE103 -gneE100 -gneE126"/>
    </vehicle>
    <vehicle id="128" depart="630.37">
        <route edges="gneE65 gneE66 gneE67 gneE68 -gneE108 -gneE106 -gneE104 gneE103 -gneE100 -gneE126"/>
    </vehicle>
    <vehicle id="129" depart="635.29">
        <route edges="gneE136 gneE117 gneE78 -gneE88 gneE89 -gneE107 -gneE106 -gneE104 gneE103 -gneE100 -gneE125"/>
    </vehicle>
    <vehicle id="130" depart="640.22">
        <route edges="gneE69 -gneE88 gneE89 -gneE107 -gneE141"/>
    </vehicle>
    <vehicle id="131" depart="645.14">
        <route edges="gneE133 gneE111 gneE75 gneE85 -gneE96 -gneE101 -gneE103 gneE104 gneE106 -gneE141"/>
    </vehicle>
    <vehicle id="132" depart="650.07">
        <route edges="gneE136 gneE117 gneE78 -gneE88 gneE89 -gneE107 gneE108 -gneE123"/>
    </vehicle>
    <vehicle id="133" depart="654.99">
        <route edges="-gneE104 gneE103 -gneE100 -gneE126"/>
    </vehicle>
    <vehicle id="134" depart="659.92">
        <route edges="gneE130 gneE119 gneE65 gneE66 gneE67 gneE68 -gneE108 -gneE106 -gneE104 gneE103 -gneE100 -gneE125"/>
    </vehicle>
    <vehicle id="135" depart="664.84">
        <route edges="-gneE88 gneE89 gneE91 -gneE94 gneE95 -gneE98 -gneE145"/>
    </vehicle>
    <vehicle id="136" depart="669.77">
        <route edges="-gneE92 -gneE105 -gneE104 gneE103 -gneE100 -gneE126"/>
    </vehicle>
    <vehicle id="137" depart="674.69">
        <route edges="gneE129 -gneE118 -gneE116 -gneE114 -gneE112 gneE111 gneE75 gneE85 -gneE96 -gneE101 -gneE144"/>
    </vehicle>
    <vehicle id="138" depart="679.62">
        <route edges="gneE123 -gneE108 -gneE106 -gneE104 gneE103 -gneE100 -gneE125"/>
    </vehicle>
    <vehicle id="139" depart="684.54">
        <route edges="gneE144 -gneE100 -gneE125"/>
    </vehicle>
    <vehicle id="140" depart="689.47">
        <route edges="-gneE64 gneE78 -gneE88 gneE89 -gneE107 -gneE141"/>
    </vehicle>
    <vehicle id="141" depart="694.39">
        <route edges="gneE66 gneE67 gneE68 -gneE108 -gneE106 -gneE104 gneE103 -gneE100 -gneE126"/>
    </vehicle>
    <vehicle id="142" depart="699.32">
        <route edges="gneE136 gneE117 gneE78 -gneE88 gneE89 -gneE107 gneE108 -gneE123"/>
    </vehicle>
    <vehicle id="143" depart="704.24">
        <route edges="gneE142 -gneE104 gneE103 -gneE100 -gneE126"/>
    </vehicle>
    <vehicle id="144" depart="709.17">
        <route edges="-gneE88 gneE89 -gneE107 -gneE141"/>
    </vehicle>
    <vehicle id="145" depart="714.09">
        <route edges="gneE89 -gneE107 -gneE141"/>
    </vehicle>
    <vehicle id="146" depart="719.02">
        <route edges="gneE80 gneE81 gneE82 -gneE96 -gneE101 -gneE144"/>
    </vehicle>
    <vehicle id="147" depart="723.94">
        <route edges="gneE138 gneE69 gneE70 gneE71 gneE72 gneE85 -gneE96 -gneE101"/>
    </vehicle>
    <vehicle id="148" depart="728.86">
        <route edges="gneE89 gneE91 -gneE94 gneE95 -gneE98 -gneE145"/>
    </vehicle>
    <vehicle id="149" depart="733.79">
        <route edges="gneE136 gneE117 gneE78 -gneE88 gneE89 gneE91 -gneE94 gneE95"/>
    </vehicle>
    <vehicle id="150" depart="738.71">
        <route edges="-gneE106 -gneE104 gneE103 -gneE100 -gneE125"/>
    </vehicle>
    <vehicle id="151" depart="743.64">
        <route edges="gneE63 gneE78 -gneE88 gneE89 -gneE107 -gneE141"/>
    </vehicle>
    <vehicle id="152" depart="748.56">
        <route edges="gneE123 -gneE108 -gneE106 -gneE104 gneE103 -gneE100 -gneE99 -gneE97 gneE84 gneE74 gneE109 -gneE131"/>
    </vehicle>
    <vehicle id="153" depart="753.49">
        <route edges="gneE66 gneE67 gneE68 -gneE108 -gneE106 -gneE104 gneE103 -gneE100 -gneE126"/>
    </vehicle>
    <vehicle id="154" depart="758.41">
        <route edges="-gneE106 -gneE104 gneE103 -gneE100 -gneE125"/>
    </vehicle>
    <vehicle id="155" depart="763.34">
        <route edges="gneE103 -gneE100 -gneE125"/>
    </vehicle>
    <vehicle id="156" depart="768.26">
        <route edges="gneE147 -gneE73 gneE85 -gneE96 -gneE101 -gneE144"/>
    </vehicle>
    <vehicle id="157" depart="773.19">
        <route edges="gneE117 gneE78 -gneE88 gneE89 -gneE107 -gneE106 -gneE104 gneE103 -gneE100 -gneE126"/>
    </vehicle>
    <vehicle id="158" depart="778.11">
        <route edges="gneE111 gneE75 gneE85 -gneE96 -gneE95 gneE94 -gneE91 gneE90 -gneE140"/>
    </vehicle>
    <vehicle id="159" depart="783.04">
        <route edges="gneE134 gneE113 gneE76 -gneE86 gneE93 gneE102 gneE103 -gneE100 -gneE125"/>
    </vehicle>
    <vehicle id="160" depart="787.96">
        <route edges="gneE69 -gneE88 gneE89 -gneE107 -gneE141"/>
    </vehicle>
    <vehicle id="161" depart="792.89">
        <route edges="gneE144 -gneE100 -gneE126"/>
    </vehicle>
    <vehicle id="162" depart="797.81">
        <route edges="gneE65 gneE66 gneE67 gneE68 -gneE108 -gneE106 -gneE104 gneE103 -gneE100 -gneE126"/>
    </vehicle>
    <vehicle id="163" depart="802.74">
        <route edges="-gneE96"/>
    </vehicle>
    <vehicle id="164" depart="807.66">
        <route edges="gneE142 -gneE104 gneE103 -gneE100"/>
    </vehicle>
    <vehicle id="165" depart="812.59">
        <route edges="gneE66 gneE67 gneE68 -gneE108 -gneE106 -gneE104 gneE103 -gneE100 -gneE126"/>
    </vehicle>
    <vehicle id="166" depart="817.51">
        <route edges="gneE76 -gneE86 gneE93 gneE102 gneE103 -gneE100 -gneE126"/>
    </vehicle>
    <vehicle id="167" depart="822.44">
        <route edges="gneE144 -gneE100 -gneE125"/>
    </vehicle>
    <vehicle id="168" depart="827.36">
        <route edges="-gneE88 gneE89 -gneE107 -gneE106 -gneE104 gneE103 -gneE100 -gneE126"/>
    </vehicle>
    <vehicle id="169" depart="832.28">
        <route edges="gneE124 -gneE108 -gneE106 -gneE104 gneE103 -gneE100 -gneE125"/>
    </vehicle>
    <vehicle id="170" depart="837.21">
        <route edges="-gneE83 -gneE82 -gneE81 -gneE80 gneE89 -gneE107 -gneE141"/>
    </vehicle>
    <vehicle id="171" depart="842.13">
        <route edges="-gneE100 -gneE126"/>
    </vehicle>
    <vehicle id="172" depart="847.06">
        <route edges="gneE134 gneE113 gneE76 -gneE86 gneE93 gneE102 gneE103 -gneE100 -gneE126"/>
    </vehicle>
    <vehicle id="173" depart="851.98">
        <route edges="gneE136 gneE117 gneE78 -gneE88 gneE89"/>
    </vehicle>
    <vehicle id="174" depart="856.91">
        <route edges="gneE142 -gneE104 gneE103 -gneE100"/>
    </vehicle>
    <vehicle id="175" depart="861.83">
        <route edges="gneE139 gneE79 gneE89 -gneE107 -gneE141"/>
    </vehicle>
    <vehicle id="176" depart="866.76">
        <route edges="gneE69 gneE70 gneE71 gneE72 gneE85 -gneE96 -gneE101"/>
    </vehicle>
    <vehicle id="177" depart="871.68">
        <route edges="gneE143 gneE103 -gneE100 -gneE125"/>
    </vehicle>
    <vehicle id="178" depart="876.61">
        <route edges="-gneE104 gneE103 -gneE100 -gneE126"/>
    </vehicle>
    <vehicle id="179" depart="881.53">
        <route edges="gneE140 -gneE90 gneE91 -gneE94 gneE95 -gneE101 -gneE100 -gneE126"/>
    </vehicle>
    <vehicle id="180" depart="886.46">
        <route edges="gneE140 -gneE90 gneE91 -gneE94 gneE95 -gneE101 -gneE100 -gneE126"/>
    </vehicle>
    <vehicle id="181" depart="891.38">
        <route edges="gneE78 -gneE88 gneE89 -gneE107 -gneE106 -gneE104 gneE103 -gneE100 -gneE126"/>
    </vehicle>
    <vehicle id="182" depart="896.31">
        <route edges="gneE136 gneE117 gneE78 -gneE88 gneE89 gneE90"/>
    </vehicle>
    <vehicle id="183" depart="901.23">
        <route edges="gneE75 gneE85 -gneE96 -gneE98 -gneE145"/>
    </vehicle>
    <vehicle id="184" depart="906.16">
        <route edges="gneE130 gneE119 gneE65 gneE66 gneE67 gneE68 -gneE108 -gneE106 -gneE104 gneE103 -gneE100 -gneE125"/>
    </vehicle>
    <vehicle id="185" depart="911.08">
        <route edges="gneE123 -gneE108 -gneE106 -gneE104 gneE103 -gneE100 -gneE125"/>
    </vehicle>
    <vehicle id="186" depart="916.01">
        <route edges="gneE69 -gneE88 gneE89 -gneE107 -gneE141"/>
    </vehicle>
    <vehicle id="187" depart="920.93">
        <route edges="-gneE88 gneE89 -gneE107 -gneE106 -gneE104 gneE103 -gneE100 -gneE126"/>
    </vehicle>
    <vehicle id="188" depart="925.85">
        <route edges="gneE93 gneE102 gneE103 -gneE100 -gneE126"/>
    </vehicle>
    <vehicle id="189" depart="930.78">
        <route edges="-gneE107 -gneE106 -gneE104 gneE103 -gneE100 -gneE126"/>
    </vehicle>
    <vehicle id="190" depart="935.70">
        <route edges="gneE133 gneE111 gneE75 gneE85 -gneE96 -gneE101 -gneE103 gneE104 gneE106 -gneE141"/>
    </vehicle>
    <vehicle id="191" depart="940.63">
        <route edges="gneE60 gneE61 gneE62 gneE63 gneE78 -gneE88 gneE89 -gneE107 -gneE141"/>
    </vehicle>
    <vehicle id="192" depart="945.55">
        <route edges="gneE123 -gneE108 -gneE106 -gneE104 gneE103 -gneE100"/>
    </vehicle>
    <vehicle id="193" depart="950.48">
        <route edges="gneE133 gneE111 gneE75 gneE85 -gneE96 -gneE101 -gneE103 gneE104 gneE106 -gneE141"/>
    </vehicle>
    <vehicle id="194" depart="955.40">
        <route edges="gneE93 gneE102 gneE103 -gneE100 -gneE126"/>
    </vehicle>
    <vehicle id="195" depart="960.33">
        <route edges="gneE75 gneE85 -gneE96 -gneE101 -gneE103"/>
    </vehicle>
    <vehicle id="196" depart="965.25">
        <route edges="gneE136 gneE117 gneE78 -gneE88 gneE89 -gneE107 gneE108 -gneE123"/>
    </vehicle>
    <vehicle id="197" depart="970.18">
        <route edges="-gneE104 gneE103 -gneE100 -gneE126"/>
    </vehicle>
    <vehicle id="198" depart="975.10">
        <route edges="gneE142 -gneE104 gneE103 -gneE100 -gneE126"/>
    </vehicle>
    <vehicle id="199" depart="980.03">
        <route edges="-gneE104 gneE103 -gneE100 -gneE126"/>
    </vehicle>
    <vehicle id="200" depart="984.95">
        <route edges="gneE146 -gneE83 -gneE82 -gneE81 -gneE80 gneE89 -gneE107 -gneE141"/>
    </vehicle>
    <vehicle id="201" depart="989.88">
        <route edges="gneE136 gneE117 gneE78 -gneE88 gneE89 -gneE107 -gneE106 -gneE104 gneE103 -gneE144"/>
    </vehicle>
    <vehicle id="202" depart="994.80">
        <route edges="gneE117 gneE78 -gneE88 gneE89 -gneE107"/>
    </vehicle>
    <vehicle id="203" depart="999.73">
        <route edges="gneE134 gneE113 gneE76 -gneE86 gneE93 gneE102 gneE103 -gneE100 -gneE125"/>
    </vehicle>
    <vehicle id="204" depart="1004.65">
        <route edges="gneE123 -gneE108 -gneE106 -gneE104 gneE103 -gneE100"/>
    </vehicle>
    <vehicle id="205" depart="1009.58">
        <route edges="gneE78 -gneE88 gneE89 -gneE107 -gneE106 -gneE104 gneE103 -gneE100 -gneE126"/>
    </vehicle>
    <vehicle id="206" depart="1014.50">
        <route edges="gneE66 gneE67 gneE68 -gneE108 -gneE106 -gneE104 gneE103 -gneE100 -gneE126"/>
    </vehicle>
    <vehicle id="207" depart="1019.43">
        <route edges="gneE102 gneE103 -gneE100 -gneE126"/>
    </vehicle>
    <vehicle id="208" depart="1024.35">
        <route edges="gneE63 gneE78 -gneE88 gneE89 -gneE107 -gneE141"/>
    </vehicle>
    <vehicle id="209" depart="1029.27">
        <route edges="gneE134 gneE113 gneE76 -gneE86 gneE93 gneE102 gneE103 -gneE100 -gneE126"/>
    </vehicle>
    <vehicle id="210" depart="1034.20">
        <route edges="gneE137 -gneE64 -gneE63 -gneE62 -gneE61 gneE75 gneE85 -gneE96 -gneE101 -gneE144"/>
    </vehicle>
    <vehicle id="211" depart="1039.12">
        <route edges="gneE80 gneE81 gneE82 -gneE96 -gneE101 -gneE144"/>
    </vehicle>
    <vehicle id="212" depart="1044.05">
        <route edges="-gneE104 gneE103 -gneE100 -gneE125"/>
    </vehicle>
    <vehicle id="213" depart="1048.97">
        <route edges="-gneE101 -gneE100 -gneE126"/>
    </vehicle>
    <vehicle id="214" depart="1053.90">
        <route edges="-gneE100 -gneE125"/>
    </vehicle>
    <vehicle id="215" depart="1058.82">
        <route edges="gneE138 gneE69 gneE70 gneE71 gneE72 gneE85 -gneE96 -gneE101"/>
    </vehicle>
    <vehicle id="216" depart="1063.75">
        <route edges="-gneE101 -gneE100 -gneE126"/>
    </vehicle>
    <vehicle id="217" depart="1068.67">
        <route edges="gneE93 gneE102 gneE103 -gneE100 -gneE126"/>
    </vehicle>
    <vehicle id="218" depart="1073.60">
        <route edges="gneE117 gneE78 -gneE88 gneE89 -gneE107"/>
    </vehicle>
    <vehicle id="219" depart="1078.52">
        <route edges="gneE133 gneE111 gneE75 gneE85 -gneE96 -gneE95 gneE94 -gneE91"/>
    </vehicle>
    <vehicle id="220" depart="1083.45">
        <route edges="gneE75 gneE85 -gneE96 -gneE101 -gneE103"/>
    </vehicle>
    <vehicle id="221" depart="1088.37">
        <route edges="gneE144 -gneE100"/>
    </vehicle>
    <vehicle id="222" depart="1093.30">
        <route edges="gneE142 -gneE104 gneE103 -gneE100 -gneE126"/>
    </vehicle>
    <vehicle id="223" depart="1098.22">
        <route edges="gneE142 -gneE104 gneE103 -gneE100 -gneE125"/>
    </vehicle>