<?xml version="1.0" encoding="UTF-8"?>
<!-- generated on 2022-04-29 13:12:45.431571 by $Id$ UNKNOWN
  options: -r basicRoutes.rou.xml -d expandedCounts.xml -o sampledRoutes.rou.xml
-->
<routes xmlns:xsi="http://www.w3.org/2001/XMLSchema-instance" xsi:noNamespaceSchemaLocation="http://sumo.dlr.de/xsd/routes_file.xsd">
<!-- begin="0.0" end="3600.0" -->
    <vehicle id="0" depart="0.00">
        <route edges="gneE88 -gneE78 -gneE117 -gneE116 -gneE114 -gneE112 -gneE110 -gneE131"/>
    </vehicle>
    <vehicle id="1" depart="0.50">
        <route edges="gneE101 gneE96 -gneE85 -gneE75 -gneE111 -gneE110"/>
    </vehicle>
    <vehicle id="2" depart="1.00">
        <route edges="gneE77 gneE87 -gneE80"/>
    </vehicle>
    <vehicle id="3" depart="1.51">
        <route edges="-gneE93 gneE86 -gneE76 -gneE113"/>
    </vehicle>
    <vehicle id="4" depart="2.01">
        <route edges="-gneE116 -gneE114"/>
    </vehicle>
    <vehicle id="5" depart="2.51">
        <route edges="-gneE63 -gneE62 gneE76"/>
    </vehicle>
    <vehicle id="6" depart="3.01">
        <route edges="-gneE117 -gneE116"/>
    </vehicle>
    <vehicle id="7" depart="3.51">
        <route edges="gneE105 gneE92 -gneE87 -gneE77 -gneE115 -gneE114"/>
    </vehicle>
    <vehicle id="8" depart="4.01">
        <route edges="gneE83"/>
    </vehicle>
    <vehicle id="9" depart="4.52">
        <route edges="gneE63 gneE64 gneE65 gneE66 gneE67 gneE68 -gneE124"/>
    </vehicle>
    <vehicle id="10" depart="5.02">
        <route edges="-gneE87 gneE71 gneE72 gneE73"/>
    </vehicle>
    <vehicle id="11" depart="5.52">
        <route edges="-gneE76 -gneE113 gneE114 gneE116 gneE118 -gneE129"/>
    </vehicle>
    <vehicle id="12" depart="6.02">
        <route edges="gneE86 -gneE76 -gneE113 -gneE112 -gneE110"/>
    </vehicle>
    <vehicle id="13" depart="6.52">
        <route edges="-gneE118 -gneE116 gneE115"/>
    </vehicle>
    <vehicle id="14" depart="7.02">
        <route edges="-gneE83 -gneE82"/>
    </vehicle>
    <vehicle id="15" depart="7.53">
        <route edges="-gneE78"/>
    </vehicle>
    <vehicle id="16" depart="8.03">
        <route edges="-gneE84 gneE97 gneE99 -gneE126"/>
    </vehicle>
    <vehicle id="17" depart="8.53">
        <route edges="gneE100 -gneE103"/>
    </vehicle>
    <vehicle id="18" depart="9.03">
        <route edges="gneE75 -gneE72 -gneE71"/>
    </vehicle>
    <vehicle id="19" depart="9.53">
        <route edges="gneE80 -gneE92"/>
    </vehicle>
    <vehicle id="20" depart="10.03">
        <route edges="-gneE82 -gneE81 -gneE87"/>
    </vehicle>
    <vehicle id="21" depart="10.54">
        <route edges="gneE85 -gneE96 -gneE95 gneE94 -gneE91 gneE90"/>
    </vehicle>
    <vehicle id="22" depart="11.04">
        <route edges="gneE75 -gneE72 -gneE71"/>
    </vehicle>
    <vehicle id="23" depart="11.54">
        <route edges="gneE100 -gneE103"/>
    </vehicle>
    <vehicle id="24" depart="12.04">
        <route edges="gneE86 -gneE76 -gneE113 gneE114 gneE116 gneE118 -gneE129"/>
    </vehicle>
    <vehicle id="25" depart="12.54">
        <route edges="-gneE108 -gneE106 -gneE104 gneE103 gneE101 gneE96 -gneE85"/>
    </vehicle>
    <vehicle id="26" depart="13.04">
        <route edges="gneE113 gneE76 -gneE86 gneE93 gneE102 gneE103 -gneE100 -gneE126"/>
    </vehicle>
    <vehicle id="27" depart="13.55">
        <route edges="gneE108 -gneE68 -gneE67 -gneE66 -gneE65 -gneE119 -gneE130"/>
    </vehicle>
    <vehicle id="28" depart="14.05">
        <route edges="gneE72 gneE73 -gneE84"/>
    </vehicle>
    <vehicle id="29" depart="14.55">
        <route edges="-gneE63 gneE77 gneE87 -gneE92 -gneE105"/>
    </vehicle>
    <vehicle id="30" depart="15.05">
        <route edges="-gneE62 gneE76 -gneE86 gneE93 gneE102"/>
    </vehicle>
    <vehicle id="31" depart="15.55">
        <route edges="gneE112 gneE114 gneE116 gneE118 gneE119 gneE65 gneE66 gneE67 gneE68 -gneE124"/>
    </vehicle>
    <vehicle id="32" depart="16.05">
        <route edges="gneE70 gneE87 -gneE92"/>
    </vehicle>
    <vehicle id="33" depart="16.56">
        <route edges="gneE117 gneE78 -gneE88 gneE89 -gneE107 -gneE106 -gneE104 gneE103 -gneE100 -gneE126"/>
    </vehicle>
    <vehicle id="34" depart="17.06">
        <route edges="-gneE68 -gneE67 -gneE66 -gneE65 -gneE119 -gneE118 -gneE116 -gneE114 -gneE112 -gneE110"/>
    </vehicle>
    <vehicle id="35" depart="17.56">
        <route edges="-gneE74 -gneE84 gneE97 gneE99 gneE100 -gneE103 gneE104 gneE106 gneE108 -gneE124"/>
    </vehicle>
    <vehicle id="36" depart="18.06">
        <route edges="gneE100 -gneE103 gneE104 gneE106 gneE108 -gneE124"/>
    </vehicle>
    <vehicle id="37" depart="18.56">
        <route edges="-gneE84 gneE97 gneE99 gneE100 -gneE103 gneE104 gneE106 gneE108 -gneE123"/>
    </vehicle>
    <vehicle id="38" depart="19.06">
        <route edges="-gneE132"/>
    </vehicle>
    <vehicle id="39" depart="19.57">
        <route edges="gneE107 -gneE89 gneE80 gneE81"/>
    </vehicle>
    <vehicle id="40" depart="20.07">
        <route edges="gneE113 gneE76 -gneE86 -gneE81"/>
    </vehicle>
    <vehicle id="41" depart="20.57">
        <route edges="-gneE68 -gneE67"/>
    </vehicle>
    <vehicle id="42" depart="21.07">
        <route edges="-gneE68 -gneE67 -gneE66 -gneE65 -gneE119 -gneE118 -gneE116"/>
    </vehicle>
    <vehicle id="43" depart="21.57">
        <route edges="-gneE63 -gneE62 -gneE61 -gneE60 -gneE74 -gneE84"/>
    </vehicle>
    <vehicle id="44" depart="22.07">
        <route edges="gneE100 -gneE103 gneE104 gneE106 gneE108"/>
    </vehicle>
    <vehicle id="45" depart="22.58">
        <route edges="-gneE108 -gneE106 -gneE104 gneE103"/>
    </vehicle>
    <vehicle id="46" depart="23.08">
        <route edges="gneE100 -gneE103 gneE104 gneE106 gneE107 -gneE89"/>
    </vehicle>
    <vehicle id="47" depart="23.58">
        <route edges="-gneE106 -gneE104 gneE103 -gneE100 -gneE99 -gneE97"/>
    </vehicle>
    <vehicle id="48" depart="24.08">
        <route edges="-gneE118 -gneE116"/>
    </vehicle>
    <vehicle id="49" depart="24.58">
        <route edges="gneE80 -gneE92"/>
    </vehicle>
    <vehicle id="50" depart="25.08">
        <route edges="gneE112 gneE114 gneE116 gneE118 gneE119"/>
    </vehicle>
    <vehicle id="51" depart="25.59">
        <route edges="-gneE64 -gneE63 -gneE62 -gneE61 gneE75 gneE85"/>
    </vehicle>
    <vehicle id="52" depart="26.09">
        <route edges="-gneE108 -gneE106 -gneE104 gneE103"/>
    </vehicle>
    <vehicle id="53" depart="26.59">
        <route edges="gneE60"/>
    </vehicle>
    <vehicle id="54" depart="27.09">
        <route edges="-gneE123"/>
    </vehicle>
    <vehicle id="55" depart="27.59">
        <route edges="-gneE131"/>
    </vehicle>
    <vehicle id="56" depart="28.09">
        <route edges="-gneE83 -gneE82 -gneE81 -gneE80 -gneE79 -gneE66"/>
    </vehicle>
    <vehicle id="57" depart="28.60">
        <route edges="gneE101 gneE96 -gneE85 -gneE75 -gneE111 -gneE110"/>
    </vehicle>
    <vehicle id="58" depart="29.10">
        <route edges="-gneE74 -gneE84"/>
    </vehicle>
    <vehicle id="59" depart="29.60">
        <route edges="gneE80 -gneE92 -gneE105"/>
    </vehicle>
    <vehicle id="60" depart="30.10">
        <route edges="gneE115 gneE77 gneE87 -gneE92 -gneE105 gneE106 gneE108"/>
    </vehicle>
    <vehicle id="61" depart="30.60">
        <route edges="-gneE67"/>
    </vehicle>
    <vehicle id="62" depart="31.10">
        <route edges="gneE113 gneE76 -gneE86 gneE93 gneE102 gneE104 gneE106 gneE108"/>
    </vehicle>
    <vehicle id="63" depart="31.61">
        <route edges="-gneE101 -gneE103 gneE104 gneE106"/>
    </vehicle>
    <vehicle id="64" depart="32.11">
        <route edges="gneE77 gneE87 -gneE92 -gneE91 gneE90"/>
    </vehicle>
    <vehicle id="65" depart="32.61">
        <route edges="-gneE118"/>
    </vehicle>
    <vehicle id="66" depart="33.11">
        <route edges="-gneE109 -gneE74"/>
    </vehicle>
    <vehicle id="67" depart="33.61">
        <route edges="-gneE113 gneE114 gneE116"/>
    </vehicle>
    <vehicle id="68" depart="34.11">
        <route edges="-gneE93 gneE86 -gneE76 -gneE113 -gneE112 -gneE110 -gneE132"/>
    </vehicle>
    <vehicle id="69" depart="34.62">
        <route edges="-gneE113 gneE114 gneE116 gneE118 -gneE129"/>
    </vehicle>
    <vehicle id="70" depart="35.12">
        <route edges="-gneE89 gneE88 -gneE78 -gneE117 -gneE116 -gneE114"/>
    </vehicle>
    <vehicle id="71" depart="35.62">
        <route edges="-gneE89 gneE88 gneE70 gneE71"/>
    </vehicle>
    <vehicle id="72" depart="36.12">
        <route edges="-gneE68 -gneE67 gneE79 gneE80 gneE81"/>
    </vehicle>
    <vehicle id="73" depart="36.62">
        <route edges="-gneE66 -gneE65 -gneE119 -gneE118 -gneE116 -gneE114 -gneE112 -gneE110 -gneE131"/>
    </vehicle>
    <vehicle id="74" depart="37.12">
        <route edges="-gneE116 -gneE114"/>
    </vehicle>
    <vehicle id="75" depart="37.63">
        <route edges="gneE80 gneE81 gneE93"/>
    </vehicle>
    <vehicle id="76" depart="38.13">
        <route edges="gneE70 gneE71 gneE72 gneE73"/>
    </vehicle>
    <vehicle id="77" depart="38.63">
        <route edges="gneE107 -gneE89 gneE88 gneE70 gneE71 gneE72"/>
    </vehicle>
    <vehicle id="78" depart="39.13">
        <route edges="-gneE90 gneE91"/>
    </vehicle>
    <vehicle id="79" depart="39.63">
        <route edges="-gneE108 -gneE106"/>
    </vehicle>
    <vehicle id="80" depart="40.13">
        <route edges="-gneE109 -gneE74 -gneE84 gneE97 gneE99 gneE100 -gneE103"/>
    </vehicle>
    <vehicle id="81" depart="40.64">
        <route edges="gneE67 gneE68 -gneE124"/>
    </vehicle>
    <vehicle id="82" depart="41.14">
        <route edges="gneE107 -gneE89 gneE88 -gneE78 -gneE63 -gneE62"/>
    </vehicle>
    <vehicle id="83" depart="41.64">
        <route edges="gneE96 -gneE85 -gneE75 -gneE111 gneE112 gneE114 gneE116 gneE118 -gneE129"/>
    </vehicle>
    <vehicle id="84" depart="42.14">
        <route edges="gneE72"/>
    </vehicle>
    <vehicle id="85" depart="42.64">
        <route edges="-gneE109 -gneE74 -gneE84 -gneE83"/>
    </vehicle>
    <vehicle id="86" depart="43.14">
        <route edges="gneE80 -gneE92"/>
    </vehicle>
    <vehicle id="87" depart="43.65">
        <route edges="gneE100 -gneE103"/>
    </vehicle>
    <vehicle id="88" depart="44.15">
        <route edges="gneE100"/>
    </vehicle>
    <vehicle id="89" depart="44.65">
        <route edges="gneE77 gneE87 -gneE92 -gneE91"/>
    </vehicle>
    <vehicle id="90" depart="45.15">
        <route edges="-gneE65"/>
    </vehicle>
    <vehicle id="91" depart="45.65">
        <route edges="gneE106"/>
    </vehicle>
    <vehicle id="92" depart="46.15">
        <route edges="-gneE118 -gneE116 gneE115 gneE77 gneE87"/>
    </vehicle>
    <vehicle id="93" depart="46.66">
        <route edges="gneE101"/>
    </vehicle>
    <vehicle id="94" depart="47.16">
        <route edges="-gneE83 -gneE82 -gneE81 -gneE80 -gneE79"/>
    </vehicle>
    <vehicle id="95" depart="47.66">
        <route edges="gneE86 -gneE76 -gneE113"/>
    </vehicle>
    <vehicle id="96" depart="48.16">
        <route edges="gneE71 -gneE86"/>
    </vehicle>
    <vehicle id="97" depart="48.66">
        <route edges="-gneE108 -gneE106"/>
    </vehicle>
    <vehicle id="98" depart="49.16">
        <route edges="gneE105 gneE92 -gneE87 gneE71 gneE72"/>
    </vehicle>
    <vehicle id="99" depart="49.67">
        <route edges="-gneE89 gneE80"/>
    </vehicle>
    <vehicle id="100" depart="50.17">
        <route edges="gneE118 gneE119 gneE65 gneE66 gneE67 gneE68 -gneE123"/>
    </vehicle>
    <vehicle id="101" depart="50.67">
        <route edges="-gneE106 -gneE104 gneE103 -gneE100 -gneE99 -gneE97 gneE84"/>
    </vehicle>
    <vehicle id="102" depart="51.17">
        <route edges="gneE105 gneE92 -gneE87 -gneE77"/>
    </vehicle>
    <vehicle id="103" depart="51.67">
        <route edges="-gneE76 -gneE113 gneE114 gneE116 gneE118 -gneE129"/>
    </vehicle>
    <vehicle id="104" depart="52.17">
        <route edges="-gneE118"/>
    </vehicle>
    <vehicle id="105" depart="52.68">
        <route edges="-gneE103 gneE104 gneE106 gneE108"/>
    </vehicle>
    <vehicle id="106" depart="53.18">
        <route edges="gneE85 -gneE96 -gneE95 gneE94 -gneE91 gneE90"/>
    </vehicle>
    <vehicle id="107" depart="53.68">
        <route edges="gneE104 gneE106"/>
    </vehicle>
    <vehicle id="108" depart="54.18">
        <route edges="-gneE63 -gneE62 -gneE61 gneE75"/>
    </vehicle>
    <vehicle id="109" depart="54.68">
        <route edges="gneE86 -gneE76 -gneE113 gneE114 gneE116 gneE118 -gneE130"/>
    </vehicle>
    <vehicle id="110" depart="55.18">
        <route edges="-gneE99"/>
    </vehicle>
    <vehicle id="111" depart="55.69">
        <route edges="-gneE103 gneE104 gneE106 gneE107 -gneE89"/>
    </vehicle>
    <vehicle id="112" depart="56.19">
        <route edges="-gneE131"/>
    </vehicle>
    <vehicle id="113" depart="56.69">
        <route edges="gneE71 -gneE86"/>
    </vehicle>
    <vehicle id="114" depart="57.19">
        <route edges="-gneE62 -gneE61 -gneE60"/>
    </vehicle>
    <vehicle id="115" depart="57.69">
        <route edges="-gneE82 -gneE81"/>
    </vehicle>
    <vehicle id="116" depart="58.19">
        <route edges="-gneE109 -gneE74 -gneE84 -gneE83 -gneE82"/>
    </vehicle>
    <vehicle id="117" depart="58.70">
        <route edges="-gneE130"/>
    </vehicle>
    <vehicle id="118" depart="59.20">
        <route edges="-gneE74 -gneE73 -gneE72 -gneE71 -gneE70"/>
    </vehicle>
    <vehicle id="119" depart="59.70">
        <route edges="-gneE92"/>
    </vehicle>
    <vehicle id="120" depart="60.20">
        <route edges="gneE66 gneE67 gneE68 -gneE108 -gneE106 -gneE104 gneE103 -gneE100 -gneE125"/>
    </vehicle>
    <vehicle id="121" depart="60.70">
        <route edges="-gneE74 -gneE84 gneE97 gneE98 -gneE95 gneE94 -gneE91 gneE90"/>
    </vehicle>
    <vehicle id="122" depart="61.20">
        <route edges="-gneE118 -gneE116 gneE115"/>
    </vehicle>
    <vehicle id="123" depart="61.71">
        <route edges="gneE93 gneE102 gneE104 gneE106"/>
    </vehicle>
    <vehicle id="124" depart="62.21">
        <route edges="gneE78 -gneE88 gneE89 -gneE107 gneE108"/>
    </vehicle>
    <vehicle id="125" depart="62.71">
        <route edges="-gneE71 -gneE70 -gneE78"/>
    </vehicle>
    <vehicle id="126" depart="63.21">
        <route edges="gneE112 gneE114"/>
    </vehicle>
    <vehicle id="127" depart="63.71">
        <route edges="-gneE91 -gneE89 gneE88 -gneE78 -gneE117"/>
    </vehicle>
    <vehicle id="128" depart="64.21">
        <route edges="-gneE97 gneE84 gneE74 gneE109 gneE110 gneE112 gneE114 gneE116"/>
    </vehicle>
    <vehicle id="129" depart="64.72">
        <route edges="-gneE104 gneE103 -gneE100 -gneE99 -gneE97 gneE84 gneE74 gneE109 -gneE131"/>
    </vehicle>
    <vehicle id="130" depart="65.22">
        <route edges="gneE113 gneE76"/>
    </vehicle>
    <vehicle id="131" depart="65.72">
        <route edges="gneE80 gneE81 gneE82 gneE83 gneE97"/>
    </vehicle>
    <vehicle id="132" depart="66.22">
        <route edges="-gneE116 -gneE114 -gneE112 -gneE110 -gneE109 -gneE74 -gneE84 gneE97"/>
    </vehicle>
    <vehicle id="133" depart="66.72">
        <route edges="gneE107 -gneE89 gneE80 gneE81"/>
    </vehicle>
    <vehicle id="134" depart="67.22">
        <route edges="gneE69 gneE70 gneE71 gneE72 gneE73 -gneE84 gneE97"/>
    </vehicle>
    <vehicle id="135" depart="67.73">
        <route edges="-gneE64 -gneE63 -gneE62 -gneE61 -gneE60 -gneE74 -gneE84 gneE97"/>
    </vehicle>
    <vehicle id="136" depart="68.23">
        <route edges="gneE100 gneE101 gneE96"/>
    </vehicle>
    <vehicle id="137" depart="68.73">
        <route edges="gneE110"/>
    </vehicle>
    <vehicle id="138" depart="69.23">
        <route edges="-gneE105 gneE106 gneE108 -gneE123"/>
    </vehicle>
    <vehicle id="139" depart="69.73">
        <route edges="-gneE78 -gneE63 -gneE62 -gneE61 -gneE60"/>
    </vehicle>
    <vehicle id="140" depart="70.23">
        <route edges="-gneE86 gneE93 gneE102 gneE104 gneE106 gneE108"/>
    </vehicle>
    <vehicle id="141" depart="70.74">
        <route edges="-gneE68 -gneE67 -gneE66 -gneE65"/>
    </vehicle>
    <vehicle id="142" depart="71.24">
        <route edges="gneE92 -gneE87 -gneE77 -gneE115 -gneE114"/>
    </vehicle>
    <vehicle id="143" depart="71.74">
        <route edges="-gneE67 -gneE66 -gneE65 -gneE119 -gneE118"/>
    </vehicle>
    <vehicle id="144" depart="72.24">
        <route edges="-gneE119 -gneE118"/>
    </vehicle>
    <vehicle id="145" depart="72.74">
        <route edges="gneE92 -gneE87 -gneE77 -gneE115 -gneE114 -gneE112"/>
    </vehicle>
    <vehicle id="146" depart="73.24">
        <route edges="-gneE81 -gneE87 -gneE77 -gneE115"/>
    </vehicle>
    <vehicle id="147" depart="73.75">
        <route edges="gneE119"/>
    </vehicle>
    <vehicle id="148" depart="74.25">
        <route edges="gneE101 gneE96 -gneE85 -gneE75 -gneE111 -gneE110"/>
    </vehicle>
    <vehicle id="149" depart="74.75">
        <route edges="-gneE76 -gneE61"/>
    </vehicle>
    <vehicle id="150" depart="75.25">
        <route edges="-gneE116"/>
    </vehicle>
    <vehicle id="151" depart="75.75">
        <route edges="gneE87"/>
    </vehicle>
    <vehicle id="152" depart="76.25">
        <route edges="gneE112 gneE114 gneE116 gneE118 gneE119 gneE65 gneE66 gneE67"/>
    </vehicle>
    <vehicle id="153" depart="76.76">
        <route edges="-gneE112 -gneE110 -gneE132"/>
    </vehicle>
    <vehicle id="154" depart="77.26">
        <route edges="-gneE118 -gneE116"/>
    </vehicle>
    <vehicle id="155" depart="77.76">
        <route edges="gneE97 gneE99 gneE100 -gneE103 gneE104 gneE106 gneE108 -gneE123"/>
    </vehicle>
    <vehicle id="156" depart="78.26">
        <route edges="gneE98 -gneE95 gneE94 -gneE91 -gneE89 gneE88"/>
    </vehicle>
    <vehicle id="157" depart="78.76">
        <route edges="gneE94"/>
    </vehicle>
    <vehicle id="158" depart="79.26">
        <route edges="gneE100 -gneE103"/>
    </vehicle>
    <vehicle id="159" depart="79.77">
        <route edges="-gneE72 -gneE71"/>
    </vehicle>
    <vehicle id="160" depart="80.27">
        <route edges="gneE113 gneE76 -gneE86 gneE93 gneE102 gneE104 gneE106"/>
    </vehicle>
    <vehicle id="161" depart="80.77">
        <route edges="gneE64 gneE65 gneE66 gneE67 gneE68 -gneE123"/>
    </vehicle>
    <vehicle id="162" depart="81.27">
        <route edges="-gneE103 gneE104 gneE106 gneE108 -gneE68 -gneE67 -gneE66 -gneE65"/>
    </vehicle>
    <vehicle id="163" depart="81.77">
        <route edges="-gneE89 gneE88 -gneE78 -gneE117 -gneE116"/>
    </vehicle>
    <vehicle id="164" depart="82.27">
        <route edges="gneE119"/>
    </vehicle>
    <vehicle id="165" depart="82.78">
        <route edges="-gneE63 -gneE62 -gneE61 gneE75 gneE85"/>
    </vehicle>
    <vehicle id="166" depart="83.28">
        <route edges="-gneE96 -gneE101 -gneE103 gneE104"/>
    </vehicle>
    <vehicle id="167" depart="83.78">
        <route edges="gneE114 gneE116 gneE118 gneE119 gneE65 gneE66 gneE67 gneE68 -gneE123"/>
    </vehicle>
    <vehicle id="168" depart="84.28">
        <route edges="-gneE108 -gneE106"/>
    </vehicle>
    <vehicle id="169" depart="84.78">
        <route edges="gneE100 -gneE103"/>
    </vehicle>
    <vehicle id="170" depart="85.28">
        <route edges="-gneE99 -gneE97 gneE84 gneE74 gneE109 -gneE131"/>
    </vehicle>
    <vehicle id="171" depart="85.79">
        <route edges="-gneE123"/>
    </vehicle>
    <vehicle id="172" depart="86.29">
        <route edges="-gneE117 -gneE116 -gneE114 -gneE112 -gneE110 -gneE132"/>
    </vehicle>
    <vehicle id="173" depart="86.79">
        <route edges="gneE78 -gneE88 gneE89 -gneE107 -gneE106 -gneE104 gneE103 -gneE100 -gneE125"/>
    </vehicle>
    <vehicle id="174" depart="87.29">
        <route edges="-gneE67 -gneE66 -gneE65 -gneE119 -gneE118 -gneE116 -gneE114"/>
    </vehicle>
    <vehicle id="175" depart="87.79">
        <route edges="-gneE97 gneE84 gneE74 gneE109 gneE110 gneE112 gneE114 gneE116 gneE118 -gneE129"/>
    </vehicle>
    <vehicle id="176" depart="88.29">
        <route edges="gneE88 -gneE78 -gneE117 -gneE116 -gneE114 -gneE112 -gneE110"/>
    </vehicle>
    <vehicle id="177" depart="88.80">
        <route edges="gneE64 -gneE119 -gneE130"/>
    </vehicle>
    <vehicle id="178" depart="89.30">
        <route edges="-gneE114 -gneE112"/>
    </vehicle>
    <vehicle id="179" depart="89.80">
        <route edges="gneE110"/>
    </vehicle>
    <vehicle id="180" depart="90.30">
        <route edges="gneE104 gneE106"/>
    </vehicle>
    <vehicle id="181" depart="90.80">
        <route edges="gneE119"/>
    </vehicle>
    <vehicle id="182" depart="91.30">
        <route edges="-gneE132"/>
    </vehicle>
    <vehicle id="183" depart="91.81">
        <route edges="gneE92 -gneE87 gneE71 gneE72 gneE73"/>
    </vehicle>
    <vehicle id="184" depart="92.31">
        <route edges="-gneE114 gneE113"/>
    </vehicle>
    <vehicle id="185" depart="92.81">
        <route edges="gneE105 gneE92 -gneE87 -gneE77 -gneE115 -gneE114 -gneE112 -gneE110"/>
    </vehicle>
    <vehicle id="186" depart="93.31">
        <route edges="gneE107 -gneE89 gneE80 gneE81"/>
    </vehicle>
    <vehicle id="187" depart="93.81">
        <route edges="-gneE64 -gneE63 -gneE62 -gneE61 -gneE60"/>
    </vehicle>
    <vehicle id="188" depart="94.31">
        <route edges="-gneE116 -gneE114 -gneE112 gneE111 gneE75"/>
    </vehicle>
    <vehicle id="189" depart="94.82">
        <route edges="-gneE87 -gneE77 -gneE115 gneE116 gneE118 -gneE129"/>
    </vehicle>
    <vehicle id="190" depart="95.32">
        <route edges="gneE100 -gneE103"/>
    </vehicle>
    <vehicle id="191" depart="95.82">
        <route edges="-gneE112"/>
    </vehicle>
    <vehicle id="192" depart="96.32">
        <route edges="-gneE110 -gneE109 -gneE74 -gneE84 gneE97 gneE99"/>
    </vehicle>
    <vehicle id="193" depart="96.82">
        <route edges="-gneE86"/>
    </vehicle>
    <vehicle id="194" depart="97.32">
        <route edges="gneE76 -gneE86 gneE93 gneE102 gneE103 -gneE100 -gneE126"/>
    </vehicle>
    <vehicle id="195" depart="97.83">
        <route edges="-gneE68 -gneE67"/>
    </vehicle>
    <vehicle id="196" depart="98.33">
        <route edges="-gneE99"/>
    </vehicle>
    <vehicle id="197" depart="98.83">
        <route edges="-gneE72 -gneE71 -gneE70 -gneE78"/>
    </vehicle>
    <vehicle id="198" depart="99.33">
        <route edges="gneE119"/>
    </vehicle>
    <vehicle id="199" depart="99.83">
        <route edges="gneE115 gneE77 gneE87 -gneE92 -gneE91"/>
    </vehicle>
    <vehicle id="200" depart="100.33">
        <route edges="-gneE90 gneE91 -gneE94 gneE95"/>
    </vehicle>
    <vehicle id="201" depart="100.84">
        <route edges="-gneE103 gneE104 gneE105 gneE92 -gneE87 -gneE77"/>
    </vehicle>
    <vehicle id="202" depart="101.34">
        <route edges="-gneE93 gneE86 -gneE76 -gneE113 -gneE112"/>
    </vehicle>
    <vehicle id="203" depart="101.84">
        <route edges="gneE105 gneE92 -gneE87 -gneE77 -gneE115 -gneE114"/>
    </vehicle>
    <vehicle id="204" depart="102.34">
        <route edges="-gneE73 -gneE72 -gneE71"/>
    </vehicle>
    <vehicle id="205" depart="102.84">
        <route edges="-gneE132"/>
    </vehicle>
    <vehicle id="206" depart="103.34">
        <route edges="-gneE65 -gneE119 -gneE118 -gneE116 -gneE114 -gneE112"/>
    </vehicle>
    <vehicle id="207" depart="103.85">
        <route edges="-gneE123"/>
    </vehicle>
    <vehicle id="208" depart="104.35">
        <route edges="gneE100 -gneE103 -gneE102 -gneE93 gneE86"/>
    </vehicle>
    <vehicle id="209" depart="104.85">
        <route edges="-gneE77 -gneE115 gneE116 gneE118"/>
    </vehicle>
    <vehicle id="210" depart="105.35">
        <route edges="gneE69 gneE70 gneE71"/>
    </vehicle>
    <vehicle id="211" depart="105.85">
        <route edges="-gneE123"/>
    </vehicle>
    <vehicle id="212" depart="106.35">
        <route edges="gneE77 gneE87 -gneE92 -gneE105 gneE106 gneE108 -gneE123"/>
    </vehicle>
    <vehicle id="213" depart="106.86">
        <route edges="gneE72 gneE85 -gneE96 -gneE101"/>
    </vehicle>
    <vehicle id="214" depart="107.36">
        <route edges="-gneE116 -gneE114 -gneE112 -gneE110 -gneE109 -gneE74"/>
    </vehicle>
    <vehicle id="215" depart="107.86">
        <route edges="gneE104 gneE106 gneE108 -gneE68 -gneE67 -gneE66 -gneE65 -gneE119 -gneE130"/>
    </vehicle>
    <vehicle id="216" depart="108.36">
        <route edges="-gneE109 -gneE74 -gneE84 -gneE83"/>
    </vehicle>
    <vehicle id="217" depart="108.86">
        <route edges="-gneE61 -gneE60 -gneE74 -gneE84"/>
    </vehicle>
    <vehicle id="218" depart="109.36">
        <route edges="gneE111 gneE75 gneE85 -gneE96"/>
    </vehicle>
    <vehicle id="219" depart="109.87">
        <route edges="-gneE80 -gneE79 -gneE66 -gneE65"/>
    </vehicle>
    <vehicle id="220" depart="110.37">
        <route edges="-gneE108 -gneE106 -gneE104 gneE103 -gneE100 -gneE99 -gneE97 gneE84 gneE74 gneE109 -gneE131"/>
    </vehicle>
    <vehicle id="221" depart="110.87">
        <route edges="gneE78 -gneE88 gneE89 -gneE107 -gneE106 -gneE104 gneE103"/>
    </vehicle>
    <vehicle id="222" depart="111.37">
        <route edges="gneE90"/>
    </vehicle>
    <vehicle id="223" depart="111.87">
        <route edges="-gneE114 -gneE112"/>
    </vehicle>
    <vehicle id="224" depart="112.37">
        <route edges="-gneE114 -gneE112"/>
    </vehicle>
    <vehicle id="225" depart="112.88">
        <route edges="-gneE115 gneE116 gneE118"/>
    </vehicle>
    <vehicle id="226" depart="113.38">
        <route edges="gneE80 gneE81 gneE82 gneE83 gneE97"/>
    </vehicle>
    <vehicle id="227" depart="113.88">
        <route edges="gneE107 -gneE89 gneE88 -gneE78 -gneE117 -gneE116 -gneE114 -gneE112"/>
    </vehicle>
    <vehicle id="228" depart="114.38">
        <route edges="-gneE68 -gneE67 -gneE66"/>
    </vehicle>
    <vehicle id="229" depart="114.88">
        <route edges="-gneE86 gneE93 gneE102 gneE104 gneE106 gneE108"/>
    </vehicle>
    <vehicle id="230" depart="115.38">
        <route edges="-gneE68 -gneE67 -gneE66"/>
    </vehicle>
    <vehicle id="231" depart="115.89">
        <route edges="-gneE67 -gneE66 -gneE65 -gneE119"/>
    </vehicle>
    <vehicle id="232" depart="116.39">
        <route edges="gneE119 gneE65 gneE66"/>
    </vehicle>
    <vehicle id="233" depart="116.89">
        <route edges="gneE98 -gneE95 gneE94 -gneE91"/>
    </vehicle>
    <vehicle id="234" depart="117.39">
        <route edges="-gneE118 -gneE116 gneE115 gneE77 gneE87 -gneE92 -gneE105"/>
    </vehicle>
    <vehicle id="235" depart="117.89">
        <route edges="-gneE119 -gneE129"/>
    </vehicle>
    <vehicle id="236" depart="118.39">
        <route edges="-gneE97 gneE84 gneE74 gneE109 gneE110 gneE112 gneE114"/>
    </vehicle>
    <vehicle id="237" depart="118.90">
        <route edges="-gneE87 -gneE77 -gneE115 -gneE114 -gneE112"/>
    </vehicle>
    <vehicle id="238" depart="119.40">
        <route edges="-gneE103 gneE104 gneE106 gneE107"/>
    </vehicle>
    <vehicle id="239" depart="119.90">
        <route edges="gneE64 gneE65 gneE66 gneE67 gneE68 -gneE124"/>
    </vehicle>
    <vehicle id="240" depart="120.40">
        <route edges="-gneE108 -gneE106 -gneE104 gneE103 gneE101"/>
    </vehicle>
    <vehicle id="241" depart="120.90">
        <route edges="gneE114 gneE116 gneE118 gneE119 gneE65 gneE66 gneE67 gneE68 -gneE124"/>
    </vehicle>
    <vehicle id="242" depart="121.40">
        <route edges="-gneE72 -gneE76 -gneE113"/>
    </vehicle>
    <vehicle id="243" depart="121.91">
        <route edges="gneE112 gneE114 gneE116 gneE118 -gneE130"/>
    </vehicle>
    <vehicle id="244" depart="122.41">
        <route edges="-gneE83 -gneE82 -gneE81 -gneE80 -gneE79 -gneE66 -gneE65"/>
    </vehicle>
    <vehicle id="245" depart="122.91">
        <route edges="gneE68 -gneE123"/>
    </vehicle>
    <vehicle id="246" depart="123.41">
        <route edges="gneE97"/>
    </vehicle>
    <vehicle id="247" depart="123.91">
        <route edges="-gneE89 gneE88 -gneE78"/>
    </vehicle>
    <vehicle id="248" depart="124.41">
        <route edges="-gneE118 -gneE116"/>
    </vehicle>
    <vehicle id="249" depart="124.92">
        <route edges="-gneE72"/>
    </vehicle>
    <vehicle id="250" depart="125.42">
        <route edges="-gneE118"/>
    </vehicle>
    <vehicle id="251" depart="125.92">
        <route edges="-gneE109 -gneE74"/>
    </vehicle>
    <vehicle id="252" depart="126.42">
        <route edges="gneE88 gneE70"/>
    </vehicle>
    <vehicle id="253" depart="126.92">
        <route edges="gneE104 gneE106"/>
    </vehicle>
    <vehicle id="254" depart="127.42">
        <route edges="-gneE112 -gneE110 -gneE109 -gneE74 -gneE84"/>
    </vehicle>
    <vehicle id="255" depart="127.93">
        <route edges="-gneE112 -gneE110 -gneE132"/>
    </vehicle>
    <vehicle id="256" depart="128.43">
        <route edges="gneE98 -gneE95 gneE94 gneE92 -gneE87 -gneE77"/>
    </vehicle>
    <vehicle id="257" depart="128.93">
        <route edges="gneE65 gneE66 gneE67 gneE68 -gneE108 -gneE106 -gneE104 gneE103 -gneE100 -gneE126"/>
    </vehicle>
    <vehicle id="258" depart="129.43">
        <route edges="-gneE99 -gneE97 gneE84 gneE74 gneE109 -gneE131"/>
    </vehicle>
    <vehicle id="259" depart="129.93">
        <route edges="-gneE89 gneE80"/>
    </vehicle>
    <vehicle id="260" depart="130.43">
        <route edges="gneE70 gneE71"/>
    </vehicle>
    <vehicle id="261" depart="130.94">
        <route edges="-gneE75 -gneE111 gneE112 gneE114 gneE116"/>
    </vehicle>
    <vehicle id="262" depart="131.44">
        <route edges="gneE117 gneE78 -gneE88 gneE89 gneE90"/>
    </vehicle>
    <vehicle id="263" depart="131.94">
        <route edges="-gneE97 gneE84 gneE74 gneE109 gneE110 gneE112 gneE114 gneE116 gneE118 -gneE130"/>
    </vehicle>
    <vehicle id="264" depart="132.44">
        <route edges="-gneE118"/>