<?xml version="1.0" encoding="UTF-8"?>
<!-- generated on 2022-04-25 15:10:53.612145 by $Id$ UNKNOWN
  options: -r basicRoutes.rou.xml -d countData.xml -o sampledRoutes.rou.xml
-->
<routes xmlns:xsi="http://www.w3.org/2001/XMLSchema-instance" xsi:noNamespaceSchemaLocation="http://sumo.dlr.de/xsd/routes_file.xsd">
<!-- begin="0.0" end="3600.0" -->
    <vehicle id="0" depart="0.00">
        <route edges="gneE117 gneE78 -gneE88 gneE89 -gneE107 -gneE106 -gneE104 gneE103 -gneE100 -gneE126"/>
    </vehicle>
    <vehicle id="1" depart="5.22">
        <route edges="gneE124 -gneE108 -gneE106 -gneE104 gneE103 -gneE100 -gneE99"/>
    </vehicle>
    <vehicle id="2" depart="10.45">
        <route edges="gneE123 -gneE108 -gneE106 -gneE104 gneE103 -gneE100 -gneE99 -gneE97 gneE84 gneE74 gneE109 -gneE131"/>
    </vehicle>
    <vehicle id="3" depart="15.67">
        <route edges="-gneE106 -gneE104 gneE103 -gneE100 -gneE125"/>
    </vehicle>
    <vehicle id="4" depart="20.90">
        <route edges="gneE89 -gneE107 -gneE106 -gneE104 gneE103"/>
    </vehicle>
    <vehicle id="5" depart="26.12">
        <route edges="gneE85 -gneE96 -gneE95"/>
    </vehicle>
    <vehicle id="6" depart="31.35">
        <route edges="-gneE104 gneE103 -gneE100 -gneE126"/>
    </vehicle>
    <vehicle id="7" depart="36.57">
        <route edges="gneE89"/>
    </vehicle>
    <vehicle id="8" depart="41.80">
        <route edges="-gneE88 gneE89 -gneE107 -gneE106 -gneE104 gneE103 -gneE100 -gneE126"/>
    </vehicle>
    <vehicle id="9" depart="47.02">
        <route edges="-gneE105 -gneE104 gneE103 -gneE100"/>
    </vehicle>
    <vehicle id="10" depart="52.25">
        <route edges="-gneE96 -gneE101 -gneE103 gneE104"/>
    </vehicle>
    <vehicle id="11" depart="57.47">
        <route edges="-gneE108 -gneE106 -gneE104 gneE103 -gneE100"/>
    </vehicle>
    <vehicle id="12" depart="62.70">
        <route edges="gneE115 gneE77 gneE87 -gneE92 -gneE105 -gneE104 gneE103 -gneE100 -gneE126"/>
    </vehicle>
    <vehicle id="13" depart="67.92">
        <route edges="-gneE88 gneE89 -gneE107 -gneE106 -gneE104"/>
    </vehicle>
    <vehicle id="14" depart="73.15">
        <route edges="gneE69 -gneE88 gneE89 -gneE107"/>
    </vehicle>
    <vehicle id="15" depart="78.37">
        <route edges="gneE75 gneE85 -gneE96 -gneE95 gneE94"/>
    </vehicle>
    <vehicle id="16" depart="83.60">
        <route edges="-gneE88 gneE89 -gneE107 -gneE106 -gneE104"/>
    </vehicle>
    <vehicle id="17" depart="88.82">
        <route edges="gneE124 -gneE108 -gneE106 -gneE104 gneE103 -gneE100 -gneE99"/>
    </vehicle>
    <vehicle id="18" depart="94.05">
        <route edges="gneE75 gneE85 -gneE96 -gneE101"/>
    </vehicle>
    <vehicle id="19" depart="99.27">
        <route edges="-gneE106 -gneE104 gneE103 -gneE100 -gneE99 -gneE97 gneE84"/>
    </vehicle>
    <vehicle id="20" depart="104.50">
        <route edges="gneE85 -gneE96 -gneE95"/>
    </vehicle>
    <vehicle id="21" depart="109.72">
        <route edges="gneE110 gneE112 gneE114 gneE116 gneE117 gneE78 -gneE88 gneE89"/>
    </vehicle>
    <vehicle id="22" depart="114.95">
        <route edges="-gneE88 gneE89 -gneE107 -gneE106 -gneE104 gneE103 -gneE100"/>
    </vehicle>
    <vehicle id="23" depart="120.17">
        <route edges="-gneE88 gneE89"/>
    </vehicle>
    <vehicle id="24" depart="125.40">
        <route edges="-gneE114 -gneE112 gneE111 gneE75 gneE85 -gneE96 -gneE101"/>
    </vehicle>
    <vehicle id="25" depart="130.62">
        <route edges="gneE78 -gneE88 gneE89 gneE90"/>
    </vehicle>
    <vehicle id="26" depart="135.85">
        <route edges="gneE68 -gneE108 -gneE106 -gneE104 gneE103 -gneE100 -gneE125"/>
    </vehicle>
    <vehicle id="27" depart="141.07">
        <route edges="gneE78 -gneE88 gneE89 -gneE107 -gneE106 -gneE104 gneE103 -gneE100"/>
    </vehicle>
    <vehicle id="28" depart="146.30">
        <route edges="gneE129 -gneE118 -gneE116 -gneE114 -gneE112 gneE111 gneE75 gneE85 -gneE96 -gneE101"/>
    </vehicle>
    <vehicle id="29" depart="151.52">
        <route edges="gneE89 gneE90"/>
    </vehicle>
    <vehicle id="30" depart="156.75">
        <route edges="gneE85 -gneE96 -gneE101"/>
    </vehicle>
    <vehicle id="31" depart="161.97">
        <route edges="gneE78 -gneE88 gneE89 -gneE107 -gneE106 -gneE104 gneE103 -gneE100 -gneE125"/>
    </vehicle>
    <vehicle id="32" depart="167.20">
        <route edges="gneE87 -gneE92 -gneE105 -gneE104 gneE103 -gneE100 -gneE125"/>
    </vehicle>
    <vehicle id="33" depart="172.42">
        <route edges="gneE75 gneE85 -gneE96 -gneE101 -gneE100 -gneE126"/>
    </vehicle>
    <vehicle id="34" depart="177.65">
        <route edges="gneE81 gneE82 -gneE96"/>
    </vehicle>
    <vehicle id="35" depart="182.87">
        <route edges="gneE110 gneE112 gneE114 gneE116 gneE117 gneE78 -gneE88 gneE89"/>
    </vehicle>
    <vehicle id="36" depart="188.10">
        <route edges="-gneE104 gneE103 -gneE100 -gneE126"/>
    </vehicle>
    <vehicle id="37" depart="193.32">
        <route edges="gneE66 gneE67 gneE68 -gneE108 -gneE106 -gneE104 gneE103 -gneE100 -gneE125"/>
    </vehicle>
    <vehicle id="38" depart="198.55">
        <route edges="-gneE104 gneE103 -gneE100 -gneE99"/>
    </vehicle>
    <vehicle id="39" depart="203.77">
        <route edges="gneE75 gneE85 -gneE96 -gneE101 -gneE100 -gneE126"/>
    </vehicle>
    <vehicle id="40" depart="209.00">
        <route edges="-gneE104 gneE103 -gneE100 -gneE126"/>
    </vehicle>
    <vehicle id="41" depart="214.22">
        <route edges="-gneE116 -gneE114 -gneE112 gneE111 gneE75 gneE85 -gneE96 -gneE101"/>
    </vehicle>
    <vehicle id="42" depart="219.45">
        <route edges="gneE65 gneE66 gneE67 gneE68 -gneE108 -gneE106 -gneE104 gneE103 -gneE100 -gneE126"/>
    </vehicle>
    <vehicle id="43" depart="224.67">
        <route edges="gneE111 gneE75 gneE85 -gneE96 -gneE101 -gneE103 gneE104 gneE106 gneE108"/>
    </vehicle>
    <vehicle id="44" depart="229.90">
        <route edges="gneE77 gneE87 -gneE92 -gneE105 -gneE104 gneE103 -gneE100"/>
    </vehicle>
    <vehicle id="45" depart="235.12">
        <route edges="gneE85 -gneE96 -gneE101 -gneE103 gneE104 gneE106"/>
    </vehicle>
    <vehicle id="46" depart="240.35">
        <route edges="-gneE104 gneE103 -gneE100 -gneE125"/>
    </vehicle>
    <vehicle id="47" depart="245.57">
        <route edges="-gneE104 gneE103 -gneE100 -gneE125"/>
    </vehicle>
    <vehicle id="48" depart="250.80">
        <route edges="-gneE88 gneE89 -gneE107 -gneE106 -gneE104 gneE103 -gneE100"/>
    </vehicle>
    <vehicle id="49" depart="256.02">
        <route edges="gneE85 -gneE96 -gneE101"/>
    </vehicle>
    <vehicle id="50" depart="261.25">
        <route edges="gneE117 gneE78 -gneE88 gneE89 -gneE107 gneE108"/>
    </vehicle>
    <vehicle id="51" depart="266.47">
        <route edges="gneE78 -gneE88 gneE89 -gneE107 gneE108"/>
    </vehicle>
    <vehicle id="52" depart="271.70">
        <route edges="gneE89 -gneE107 -gneE106 -gneE104 gneE103 -gneE100"/>
    </vehicle>
    <vehicle id="53" depart="276.92">
        <route edges="-gneE106 -gneE104 gneE103 -gneE100 -gneE99 -gneE97"/>
    </vehicle>
    <vehicle id="54" depart="282.15">
        <route edges="-gneE118 gneE117 gneE78 -gneE88 gneE89"/>
    </vehicle>
    <vehicle id="55" depart="287.37">
        <route edges="gneE76 -gneE86 gneE93 gneE102 gneE103 -gneE100 -gneE126"/>
    </vehicle>
    <vehicle id="56" depart="292.60">
        <route edges="gneE131 gneE110 gneE112 gneE114 gneE116 gneE117 gneE78 -gneE88 gneE89"/>
    </vehicle>
    <vehicle id="57" depart="297.82">
        <route edges="gneE123 -gneE108 -gneE106 -gneE104 gneE103 -gneE100 -gneE125"/>
    </vehicle>
    <vehicle id="58" depart="303.05">
        <route edges="gneE117 gneE78 -gneE88 gneE89 -gneE107 gneE108"/>
    </vehicle>
    <vehicle id="59" depart="308.27">
        <route edges="-gneE61 gneE75 gneE85 -gneE96 -gneE101"/>
    </vehicle>
    <vehicle id="60" depart="313.50">
        <route edges="gneE68 -gneE108 -gneE106 -gneE104 gneE103 -gneE100 -gneE126"/>
    </vehicle>
    <vehicle id="61" depart="318.72">
        <route edges="gneE79 gneE89"/>
    </vehicle>
    <vehicle id="62" depart="323.95">
        <route edges="gneE66 gneE67 gneE68 -gneE108 -gneE106 -gneE104 gneE103 -gneE100"/>
    </vehicle>
    <vehicle id="63" depart="329.17">
        <route edges="-gneE100 -gneE125"/>
    </vehicle>
    <vehicle id="64" depart="334.40">
        <route edges="gneE78 -gneE88 gneE89 -gneE107 -gneE106 -gneE104 gneE103 -gneE100 -gneE126"/>
    </vehicle>
    <vehicle id="65" depart="339.62">
        <route edges="gneE89 -gneE107 -gneE106 -gneE104 gneE103"/>
    </vehicle>
    <vehicle id="66" depart="344.85">
        <route edges="gneE89 -gneE107"/>
    </vehicle>
    <vehicle id="67" depart="350.07">
        <route edges="-gneE88 gneE89 -gneE107 -gneE106 -gneE104 gneE103 -gneE100 -gneE126"/>
    </vehicle>
    <vehicle id="68" depart="355.30">
        <route edges="gneE93 gneE102 gneE103 -gneE100"/>
    </vehicle>
    <vehicle id="69" depart="360.52">
        <route edges="-gneE108 -gneE106 -gneE104 gneE103 -gneE100 -gneE125"/>
    </vehicle>
    <vehicle id="70" depart="365.75">
        <route edges="-gneE88 gneE89 -gneE107 -gneE106 -gneE104 gneE103 -gneE100 -gneE125"/>
    </vehicle>
    <vehicle id="71" depart="370.97">
        <route edges="gneE78 -gneE88 gneE89 -gneE107 -gneE106 -gneE104 gneE103 -gneE100 -gneE125"/>
    </vehicle>
    <vehicle id="72" depart="376.20">
        <route edges="gneE131 gneE110 gneE112 gneE114 gneE116 gneE117 gneE78 -gneE88 gneE89"/>
    </vehicle>
    <vehicle id="73" depart="381.42">
        <route edges="gneE89 -gneE107 -gneE106 -gneE104 gneE103 -gneE100"/>
    </vehicle>
    <vehicle id="74" depart="386.65">
        <route edges="-gneE104 gneE103 -gneE100 -gneE99 -gneE97 gneE84 gneE74 gneE109 -gneE131"/>
    </vehicle>
    <vehicle id="75" depart="391.87">
        <route edges="-gneE88 gneE89 -gneE107 -gneE106 -gneE104 gneE103 -gneE100"/>
    </vehicle>
    <vehicle id="76" depart="397.10">
        <route edges="gneE130 gneE119 gneE65 gneE66 gneE67 gneE68 -gneE108 -gneE106 -gneE104 gneE103 -gneE100 -gneE126"/>
    </vehicle>
    <vehicle id="77" depart="402.32">
        <route edges="gneE77 gneE87 -gneE92 -gneE105 -gneE104 gneE103 -gneE100 -gneE126"/>
    </vehicle>
    <vehicle id="78" depart="407.55">
        <route edges="gneE78 -gneE88 gneE89 -gneE107 -gneE106 -gneE104 gneE103 -gneE100 -gneE126"/>
    </vehicle>
    <vehicle id="79" depart="412.77">
        <route edges="gneE124 -gneE108 -gneE106 -gneE104 gneE103 -gneE100"/>
    </vehicle>
    <vehicle id="80" depart="418.00">
        <route edges="gneE129 -gneE118 -gneE116 -gneE114 gneE113 gneE76 -gneE86 gneE93 gneE102 gneE103 -gneE100 -gneE126"/>
    </vehicle>
    <vehicle id="81" depart="423.22">
        <route edges="-gneE108 -gneE106 -gneE104 gneE103 -gneE100 -gneE125"/>
    </vehicle>
    <vehicle id="82" depart="428.45">
        <route edges="gneE110 gneE112 gneE114 gneE116 gneE117 gneE78 -gneE88 gneE89"/>
    </vehicle>
    <vehicle id="83" depart="433.67">
        <route edges="gneE78 -gneE88 gneE89 -gneE107 -gneE106 -gneE104 gneE103 -gneE100 -gneE125"/>
    </vehicle>
    <vehicle id="84" depart="438.90">
        <route edges="gneE117 gneE78 -gneE88 gneE89 -gneE107 gneE108"/>
    </vehicle>
    <vehicle id="85" depart="444.12">
        <route edges="-gneE88 gneE89 -gneE107 gneE108"/>
    </vehicle>
    <vehicle id="86" depart="449.35">
        <route edges="gneE113 gneE76 -gneE86 gneE93 gneE102 gneE103 -gneE100 -gneE126"/>
    </vehicle>
    <vehicle id="87" depart="454.57">
        <route edges="gneE78 -gneE88 gneE89 -gneE107 gneE108"/>
    </vehicle>
    <vehicle id="88" depart="459.80">
        <route edges="gneE76 -gneE86 gneE93 gneE102 gneE103 -gneE100 -gneE126"/>
    </vehicle>
    <vehicle id="89" depart="465.02">
        <route edges="-gneE105 -gneE104 gneE103 -gneE100 -gneE125"/>
    </vehicle>
    <vehicle id="90" depart="470.25">
        <route edges="gneE123 -gneE108 -gneE106 -gneE104 gneE103 -gneE100 -gneE99"/>
    </vehicle>
    <vehicle id="91" depart="475.47">
        <route edges="-gneE61 gneE75 gneE85 -gneE96"/>
    </vehicle>
    <vehicle id="92" depart="480.70">
        <route edges="gneE78 -gneE88 gneE89 -gneE107 -gneE106 -gneE104 gneE103 -gneE100"/>
    </vehicle>
    <vehicle id="93" depart="485.92">
        <route edges="gneE123 -gneE108 -gneE106 -gneE104 gneE103 -gneE100"/>
    </vehicle>
    <vehicle id="94" depart="491.15">
        <route edges="gneE115 gneE77 gneE87 -gneE92 -gneE105 -gneE104 gneE103 -gneE100 -gneE126"/>
    </vehicle>
    <vehicle id="95" depart="496.37">
        <route edges="gneE78 -gneE88 gneE89 -gneE107 -gneE106 -gneE104 gneE103 -gneE100 -gneE126"/>
    </vehicle>
    <vehicle id="96" depart="501.60">
        <route edges="gneE78 -gneE88 gneE89 -gneE107 -gneE106 -gneE104 gneE103 -gneE100"/>
    </vehicle>
    <vehicle id="97" depart="506.82">
        <route edges="-gneE100 -gneE99 -gneE97 gneE84 gneE74 gneE109 -gneE131"/>
    </vehicle>
    <vehicle id="98" depart="512.05">
        <route edges="gneE78 -gneE88 gneE89 -gneE107 -gneE106 -gneE104 gneE103 -gneE100 -gneE125"/>
    </vehicle>
    <vehicle id="99" depart="517.27">
        <route edges="gneE129 -gneE118 gneE117 gneE78 -gneE88 gneE89"/>
    </vehicle>
    <vehicle id="100" depart="522.50">
        <route edges="gneE117 gneE78 -gneE88 gneE89"/>
    </vehicle>
    <vehicle id="101" depart="527.72">
        <route edges="gneE103 -gneE100 -gneE126"/>
    </vehicle>
    <vehicle id="102" depart="532.95">
        <route edges="gneE89 -gneE107"/>
    </vehicle>
    <vehicle id="103" depart="538.17">
        <route edges="gneE78 -gneE88 gneE89 -gneE107 -gneE106 -gneE104 gneE103 -gneE100"/>
    </vehicle>
    <vehicle id="104" depart="543.40">
        <route edges="-gneE106 -gneE104 gneE103 -gneE100 -gneE99"/>
    </vehicle>
    <vehicle id="105" depart="548.62">
        <route edges="gneE75 gneE85 -gneE96 -gneE101 -gneE100 -gneE126"/>
    </vehicle>
    <vehicle id="106" depart="553.85">
        <route edges="-gneE105 -gneE104 gneE103 -gneE100 -gneE126"/>
    </vehicle>
    <vehicle id="107" depart="559.07">
        <route edges="-gneE88 gneE89 -gneE107 -gneE106 -gneE104 gneE103 -gneE100"/>
    </vehicle>
    <vehicle id="108" depart="564.30">
        <route edges="gneE103 -gneE100 -gneE126"/>
    </vehicle>
    <vehicle id="109" depart="569.52">
        <route edges="gneE65 gneE66 gneE67 gneE68 -gneE108 -gneE106 -gneE104 gneE103 -gneE100"/>
    </vehicle>
    <vehicle id="110" depart="574.75">
        <route edges="gneE103 -gneE100 -gneE125"/>
    </vehicle>
    <vehicle id="111" depart="579.97">
        <route edges="gneE78 -gneE88 gneE89 -gneE107"/>
    </vehicle>
    <vehicle id="112" depart="585.20">
        <route edges="-gneE106 -gneE104 gneE103 -gneE100 -gneE125"/>
    </vehicle>
    <vehicle id="113" depart="590.42">
        <route edges="gneE75 gneE85 -gneE96 -gneE101 -gneE103 gneE104 gneE106 gneE108"/>
    </vehicle>
    <vehicle id="114" depart="595.65">
        <route edges="gneE70 gneE71 gneE72 gneE85 -gneE96"/>
    </vehicle>
    <vehicle id="115" depart="600.87">
        <route edges="gneE102 gneE103 -gneE100"/>
    </vehicle>
    <vehicle id="116" depart="606.10">
        <route edges="-gneE108 -gneE106 -gneE104 gneE103 -gneE100 -gneE99 -gneE97 gneE84 gneE74 gneE109 -gneE131"/>
    </vehicle>
    <vehicle id="117" depart="611.32">
        <route edges="gneE117 gneE78 -gneE88 gneE89 -gneE107 -gneE106 -gneE104 gneE103 -gneE100 -gneE126"/>
    </vehicle>
    <vehicle id="118" depart="616.55">
        <route edges="gneE78 -gneE88 gneE89"/>
    </vehicle>
    <vehicle id="119" depart="621.77">
        <route edges="-gneE64 gneE78 -gneE88 gneE89"/>
    </vehicle>
    <vehicle id="120" depart="627.00">
        <route edges="gneE78 -gneE88 gneE89 gneE90"/>
    </vehicle>
    <vehicle id="121" depart="632.22">
        <route edges="-gneE108 -gneE106 -gneE104 gneE103 -gneE100 -gneE99 -gneE97 gneE84 gneE74 gneE109 -gneE131"/>
    </vehicle>
    <vehicle id="122" depart="637.45">
        <route edges="-gneE104 gneE103 -gneE100 -gneE126"/>
    </vehicle>
    <vehicle id="123" depart="642.67">
        <route edges="gneE102 gneE103 -gneE100 -gneE126"/>
    </vehicle>
    <vehicle id="124" depart="647.90">
        <route edges="gneE111 gneE75 gneE85 -gneE96 -gneE95"/>
    </vehicle>
    <vehicle id="125" depart="653.12">
        <route edges="gneE132 gneE110 gneE112 gneE114 gneE116 gneE117 gneE78 -gneE88 gneE89"/>
    </vehicle>
    <vehicle id="126" depart="658.35">
        <route edges="gneE71 gneE72 gneE85 -gneE96"/>
    </vehicle>
    <vehicle id="127" depart="663.57">
        <route edges="gneE75 gneE85 -gneE96 -gneE101 -gneE100 -gneE126"/>
    </vehicle>
    <vehicle id="128" depart="668.80">
        <route edges="-gneE88 gneE89"/>
    </vehicle>
    <vehicle id="129" depart="674.02">
        <route edges="-gneE104 gneE103 -gneE100 -gneE125"/>
    </vehicle>
    <vehicle id="130" depart="679.25">
        <route edges="gneE75 gneE85 -gneE96 -gneE101 -gneE100 -gneE126"/>
    </vehicle>
    <vehicle id="131" depart="684.47">
        <route edges="-gneE104 gneE103 -gneE100 -gneE99 -gneE97 gneE84 gneE74"/>
    </vehicle>
    <vehicle id="132" depart="689.70">
        <route edges="gneE93 gneE102 gneE103 -gneE100 -gneE126"/>
    </vehicle>
    <vehicle id="133" depart="694.92">
        <route edges="gneE124 -gneE108 -gneE106 -gneE104 gneE103 -gneE100 -gneE125"/>
    </vehicle>
    <vehicle id="134" depart="700.15">
        <route edges="-gneE118 -gneE116 -gneE114 -gneE112 gneE111 gneE75 gneE85 -gneE96 -gneE101 -gneE100 -gneE126"/>
    </vehicle>
    <vehicle id="135" depart="705.37">
        <route edges="gneE89 -gneE107 -gneE106 -gneE104 gneE103 -gneE100"/>
    </vehicle>
    <vehicle id="136" depart="710.60">
        <route edges="gneE123 -gneE108 -gneE106 -gneE104 gneE103 -gneE100 -gneE126"/>
    </vehicle>
    <vehicle id="137" depart="715.82">
        <route edges="gneE78 -gneE88 gneE89 -gneE107"/>
    </vehicle>
    <vehicle id="138" depart="721.04">
        <route edges="gneE124 -gneE108 -gneE106 -gneE104 gneE103 -gneE100 -gneE99 -gneE97 gneE84"/>
    </vehicle>
    <vehicle id="139" depart="726.27">
        <route edges="gneE89 gneE90"/>
    </vehicle>
    <vehicle id="140" depart="731.49">
        <route edges="-gneE96 -gneE101 -gneE103 gneE104"/>
    </vehicle>
    <vehicle id="141" depart="736.72">
        <route edges="gneE123 -gneE108 -gneE106 -gneE104 gneE103 -gneE100 -gneE99 -gneE97 gneE84 gneE74"/>
    </vehicle>
    <vehicle id="142" depart="741.94">
        <route edges="gneE67 gneE68 -gneE108 -gneE106 -gneE104 gneE103 -gneE100 -gneE126"/>
    </vehicle>
    <vehicle id="143" depart="747.17">
        <route edges="-gneE88 gneE89 -gneE107 -gneE106 -gneE104 gneE103 -gneE100"/>
    </vehicle>
    <vehicle id="144" depart="752.39">
        <route edges="gneE78 -gneE88 gneE89 gneE90"/>
    </vehicle>
    <vehicle id="145" depart="757.62">
        <route edges="gneE89 -gneE107 -gneE106 -gneE104"/>
    </vehicle>
    <vehicle id="146" depart="762.84">
        <route edges="-gneE88 gneE89 -gneE107"/>
    </vehicle>
    <vehicle id="147" depart="768.07">
        <route edges="-gneE88 gneE89 -gneE107 -gneE106 -gneE104 gneE103 -gneE100 -gneE126"/>
    </vehicle>
    <vehicle id="148" depart="773.29">
        <route edges="gneE113 gneE76 -gneE86 gneE93 gneE102 gneE103 -gneE100 -gneE126"/>
    </vehicle>
    <vehicle id="149" depart="778.52">
        <route edges="gneE130 gneE119 gneE65 gneE66 gneE67 gneE68 -gneE108 -gneE106 -gneE104 gneE103 -gneE100 -gneE125"/>
    </vehicle>
    <vehicle id="150" depart="783.74">
        <route edges="-gneE105 -gneE104 gneE103 -gneE100"/>
    </vehicle>
    <vehicle id="151" depart="788.97">
        <route edges="gneE78 -gneE88 gneE89 -gneE107 -gneE106 -gneE104 gneE103"/>
    </vehicle>
    <vehicle id="152" depart="794.19">
        <route edges="-gneE104 gneE103 -gneE100"/>
    </vehicle>
    <vehicle id="153" depart="799.42">
        <route edges="gneE78 -gneE88 gneE89 -gneE107 gneE108"/>
    </vehicle>
    <vehicle id="154" depart="804.64">
        <route edges="gneE89 -gneE107"/>
    </vehicle>
    <vehicle id="155" depart="809.87">
        <route edges="gneE124 -gneE108 -gneE106 -gneE104 gneE103 -gneE100 -gneE126"/>
    </vehicle>
    <vehicle id="156" depart="815.09">
        <route edges="gneE67 gneE68 -gneE108 -gneE106 -gneE104 gneE103 -gneE100"/>
    </vehicle>
    <vehicle id="157" depart="820.32">
        <route edges="gneE78 -gneE88 gneE89 -gneE107 -gneE106 -gneE104"/>
    </vehicle>
    <vehicle id="158" depart="825.54">
        <route edges="gneE78 -gneE88 gneE89 -gneE107"/>
    </vehicle>
    <vehicle id="159" depart="830.77">
        <route edges="gneE79 gneE89"/>
    </vehicle>
    <vehicle id="160" depart="835.99">
        <route edges="-gneE88 gneE89 -gneE107 -gneE106 -gneE104 gneE103 -gneE100 -gneE125"/>
    </vehicle>
    <vehicle id="161" depart="841.22">
        <route edges="gneE117 gneE78 -gneE88 gneE89 -gneE107"/>
    </vehicle>
    <vehicle id="162" depart="846.44">
        <route edges="gneE111 gneE75 gneE85 -gneE96 -gneE101 -gneE100 -gneE126"/>
    </vehicle>
    <vehicle id="163" depart="851.67">
        <route edges="-gneE104 gneE103 -gneE100 -gneE99 -gneE97 gneE84 gneE74 gneE109 -gneE131"/>
    </vehicle>
    <vehicle id="164" depart="856.89">
        <route edges="gneE111 gneE75 gneE85 -gneE96 -gneE101 -gneE103 gneE104 gneE106 gneE108"/>
    </vehicle>
    <vehicle id="165" depart="862.12">
        <route edges="-gneE108 -gneE106 -gneE104 gneE103 -gneE100 -gneE99 -gneE97 gneE84 gneE74"/>
    </vehicle>
    <vehicle id="166" depart="867.34">
        <route edges="-gneE118 gneE117 gneE78 -gneE88 gneE89"/>
    </vehicle>
    <vehicle id="167" depart="872.57">
        <route edges="-gneE100 -gneE126"/>
    </vehicle>
    <vehicle id="168" depart="877.79">
        <route edges="gneE67 gneE68 -gneE108 -gneE106 -gneE104 gneE103 -gneE100 -gneE125"/>
    </vehicle>
    <vehicle id="169" depart="883.02">
        <route edges="gneE129 -gneE118 gneE117 gneE78 -gneE88 gneE89 -gneE107"/>
    </vehicle>
    <vehicle id="170" depart="888.24">
        <route edges="-gneE88 gneE89 -gneE107"/>
    </vehicle>
    <vehicle id="171" depart="893.47">
        <route edges="-gneE107 -gneE106 -gneE104 gneE103 -gneE100 -gneE125"/>
    </vehicle>
    <vehicle id="172" depart="898.69">
        <route edges="gneE78 -gneE88 gneE89 -gneE107 -gneE106 -gneE104 gneE103 -gneE100 -gneE126"/>
    </vehicle>
    <vehicle id="173" depart="903.92">
        <route edges="gneE89"/>
    </vehicle>
    <vehicle id="174" depart="909.14">
        <route edges="gneE111 gneE75 gneE85 -gneE96 -gneE101 -gneE103 gneE104 gneE106 gneE108"/>
    </vehicle>
    <vehicle id="175" depart="914.37">
        <route edges="gneE72 gneE85 -gneE96 -gneE101"/>
    </vehicle>
    <vehicle id="176" depart="919.59">
        <route edges="-gneE106 -gneE104 gneE103 -gneE100 -gneE99 -gneE97 gneE84 gneE74 gneE109 -gneE131"/>
    </vehicle>
    <vehicle id="177" depart="924.82">
        <route edges="gneE65 gneE66 gneE67 gneE68 -gneE108 -gneE106 -gneE104 gneE103 -gneE100 -gneE126"/>
    </vehicle>
    <vehicle id="178" depart="930.04">
        <route edges="gneE77 gneE87 -gneE92 -gneE105 -gneE104 gneE103 -gneE100 -gneE125"/>
    </vehicle>
    <vehicle id="179" depart="935.27">
        <route edges="-gneE106 -gneE104 gneE103 -gneE100 -gneE99 -gneE97 gneE84 gneE74 gneE109 -gneE131"/>
    </vehicle>
    <vehicle id="180" depart="940.49">
        <route edges="gneE124 -gneE108 -gneE106 -gneE104 gneE103 -gneE100 -gneE99"/>
    </vehicle>
    <vehicle id="181" depart="945.72">
        <route edges="-gneE106 -gneE104 gneE103 -gneE100 -gneE99 -gneE97 gneE84 gneE74 gneE109 -gneE132"/>
    </vehicle>
    <vehicle id="182" depart="950.94">
        <route edges="gneE87 -gneE92 -gneE105 -gneE104 gneE103 -gneE100 -gneE126"/>
    </vehicle>
    <vehicle id="183" depart="956.17">
        <route edges="gneE124 -gneE108 -gneE106 -gneE104 gneE103 -gneE100 -gneE99"/>
    </vehicle>
    <vehicle id="184" depart="961.39">
        <route edges="gneE72 gneE85 -gneE96"/>
    </vehicle>
    <vehicle id="185" depart="966.62">
        <route edges="gneE75 gneE85 -gneE96 -gneE101 -gneE100 -gneE126"/>
    </vehicle>
    <vehicle id="186" depart="971.84">
        <route edges="gneE89 -gneE107 -gneE106 -gneE104 gneE103"/>
    </vehicle>
    <vehicle id="187" depart="977.07">
        <route edges="gneE123 -gneE108 -gneE106 -gneE104 gneE103 -gneE100 -gneE125"/>
    </vehicle>
    <vehicle id="188" depart="982.29">
        <route edges="-gneE106 -gneE104 gneE103 -gneE100 -gneE99 -gneE97 gneE84 gneE74 gneE109 -gneE131"/>
    </vehicle>
    <vehicle id="189" depart="987.52">
        <route edges="gneE75 gneE85 -gneE96 -gneE95 gneE94"/>
    </vehicle>
    <vehicle id="190" depart="992.74">
        <route edges="gneE85 -gneE96 -gneE101 -gneE100 -gneE126"/>
    </vehicle>
    <vehicle id="191" depart="997.97">
        <route edges="gneE115 gneE77 gneE87 -gneE92 -gneE105 -gneE104 gneE103 -gneE100 -gneE126"/>
    </vehicle>
    <vehicle id="192" depart="1003.19">
        <route edges="-gneE106 -gneE104 gneE103 -gneE100 -gneE99 -gneE97 gneE84 gneE74 gneE109 -gneE132"/>
    </vehicle>
    <vehicle id="193" depart="1008.42">
        <route edges="gneE123 -gneE108 -gneE106 -gneE104 gneE103 -gneE100 -gneE99 -gneE97 gneE84 gneE74 gneE109 -gneE131"/>
    </vehicle>
    <vehicle id="194" depart="1013.64">
        <route edges="-gneE104 gneE103 -gneE100 -gneE99 -gneE97 gneE84 gneE74"/>
    </vehicle>
    <vehicle id="195" depart="1018.87">
        <route edges="-gneE100 -gneE99 -gneE97 gneE84 gneE74 gneE109 -gneE131"/>
    </vehicle>
    <vehicle id="196" depart="1024.09">
        <route edges="gneE129 -gneE118 gneE117 gneE78 -gneE88 gneE89"/>
    </vehicle>
    <vehicle id="197" depart="1029.32">
        <route edges="-gneE108 -gneE106 -gneE104 gneE103 -gneE100"/>
    </vehicle>
    <vehicle id="198" depart="1034.54">
        <route edges="gneE78 -gneE88 gneE89 -gneE107 -gneE106 -gneE104 gneE103 -gneE100"/>
    </vehicle>
    <vehicle id="199" depart="1039.77">
        <route edges="gneE78 -gneE88 gneE89 -gneE107 -gneE106 -gneE104"/>
    </vehicle>
    <vehicle id="200" depart="1044.99">
        <route edges="gneE117 gneE78 -gneE88 gneE89 -gneE107 -gneE106 -gneE104 gneE103 -gneE100 -gneE126"/>
    </vehicle>
    <vehicle id="201" depart="1050.22">
        <route edges="gneE129 -gneE118 gneE117 gneE78 -gneE88 gneE89 -gneE107"/>
    </vehicle>
    <vehicle id="202" depart="1055.44">
        <route edges="gneE76 -gneE86 gneE93 gneE102 gneE103 -gneE100 -gneE126"/>
    </vehicle>
    <vehicle id="203" depart="1060.67">
        <route edges="-gneE88 gneE89 gneE90"/>
    </vehicle>
    <vehicle id="204" depart="1065.89">
        <route edges="gneE85 -gneE96 -gneE101"/>
    </vehicle>
    <vehicle id="205" depart="1071.12">
        <route edges="-gneE104 gneE103 -gneE100 -gneE126"/>
    </vehicle>
    <vehicle id="206" depart="1076.34">
        <route edges="gneE117 gneE78 -gneE88 gneE89 -gneE107 gneE108"/>
    </vehicle>
    <vehicle id="207" depart="1081.57">
        <route edges="gneE67 gneE68 -gneE108 -gneE106 -gneE104 gneE103 -gneE100"/>
    </vehicle>
    <vehicle id="208" depart="1086.79">
        <route edges="-gneE101 -gneE100 -gneE126"/>
    </vehicle>
    <vehicle id="209" depart="1092.02">
        <route edges="-gneE104 gneE103 -gneE100 -gneE99 -gneE97 gneE84 gneE74"/>
    </vehicle>
    <vehicle id="210" depart="1097.24">
        <route edges="gneE78 -gneE88 gneE89"/>
    </vehicle>
    <vehicle id="211" depart="1102.47">
        <route edges="gneE78 -gneE88 gneE89 -gneE107 -gneE106 -gneE104 gneE103 -gneE100 -gneE125"/>
    </vehicle>
    <vehicle id="212" depart="1107.69">
        <route edges="-gneE118 -gneE116 -gneE114 -gneE112 gneE111 gneE75 gneE85 -gneE96 -gneE101"/>
    </vehicle>
    <vehicle id="213" depart="1112.92">
        <route edges="gneE78 -gneE88 gneE89 -gneE107 -gneE106 -gneE104 gneE103"/>
    </vehicle>
    <vehicle id="214" depart="1118.14">
        <route edges="gneE111 gneE75 gneE85 -gneE96 -gneE101 -gneE103 gneE104 gneE106 gneE108"/>
    </vehicle>
    <vehicle id="215" depart="1123.37">
        <route edges="gneE78 -gneE88 gneE89 -gneE107 gneE108"/>
    </vehicle>
    <vehicle id="216" depart="1128.59">
        <route edges="gneE117 gneE78 -gneE88 gneE89 -gneE107 -gneE106 -gneE104 gneE103 -gneE100 -gneE126"/>
    </vehicle>
    <vehicle id="217" depart="1133.82">
        <route edges="gneE72 gneE85 -gneE96"/>
    </vehicle>
    <vehicle id="218" depart="1139.04">
        <route edges="-gneE61 gneE75 gneE85 -gneE96"/>
    </vehicle>
    <vehicle id="219" depart="1144.27">
        <route edges="-gneE88 gneE89 -gneE107"/>
    </vehicle>
    <vehicle id="220" depart="1149.49">
        <route edges="gneE117 gneE78 -gneE88 gneE89 gneE90"/>
    </vehicle>
    <vehicle id="221" depart="1154.72">
        <route edges="-gneE104 gneE103 -gneE100 -gneE99 -gneE97 gneE84 gneE74"/>
    </vehicle>
    <vehicle id="222" depart="1159.94">
        <route edges="-gneE88 gneE89"/>
    </vehicle>
    <vehicle id="223" depart="1165.17">
        <route edges="gneE78 -gneE88 gneE89 -gneE107 -gneE106 -gneE104 gneE103 -gneE100 -gneE126"/>
    </vehicle>
    <vehicle id="224" depart="1170.39">
        <route edges="gneE67 gneE68 -gneE108 -gneE106 -gneE104 gneE103 -gneE100 -gneE126"/>
    </vehicle>
    <vehicle id="225" depart="1175.62">
        <route edges="-gneE108 -gneE106 -gneE104 gneE103 -gneE100"/>
    </vehicle>
    <vehicle id="226" depart="1180.84">
        <route edges="gneE117 gneE78 -gneE88 gneE89 -gneE107 -gneE106 -gneE104 gneE103 -gneE100 -gneE126"/>
    </vehicle>
    <vehicle id="227" depart="1186.07">
        <route edges="-gneE88 gneE89 -gneE107 -gneE106 -gneE104 gneE103 -gneE100"/>
    </vehicle>