<?xml version="1.0" encoding="UTF-8"?>
<!-- generated on 2022-04-20 10:38:30.651384 by $Id$ UNKNOWN
  options: -r basicRoutes.rou.xml -o sampledRoutes.rou.xml -d out.xml
-->
<routes xmlns:xsi="http://www.w3.org/2001/XMLSchema-instance" xsi:noNamespaceSchemaLocation="http://sumo.dlr.de/xsd/routes_file.xsd">
<!-- begin="0.0" end="3600.0" -->
    <vehicle id="0" depart="0.00">
        <route edges="-gneE82 -gneE81 -gneE80 gneE89"/>
    </vehicle>
    <vehicle id="1" depart="0.11">
        <route edges="gneE117 gneE78 -gneE88 gneE80 gneE81 gneE82"/>
    </vehicle>
    <vehicle id="2" depart="0.22">
        <route edges="-gneE94 gneE95 gneE96 -gneE85 -gneE75"/>
    </vehicle>
    <vehicle id="3" depart="0.32">
        <route edges="gneE103"/>
    </vehicle>
    <vehicle id="4" depart="0.43">
        <route edges="gneE92 -gneE87 -gneE77"/>
    </vehicle>
    <vehicle id="5" depart="0.54">
        <route edges="gneE119"/>
    </vehicle>
    <vehicle id="6" depart="0.65">
        <route edges="gneE65"/>
    </vehicle>
    <vehicle id="7" depart="0.76">
        <route edges="-gneE115 -gneE114 -gneE112 -gneE110 -gneE131"/>
    </vehicle>
    <vehicle id="8" depart="0.87">
        <route edges="-gneE108 -gneE106"/>
    </vehicle>
    <vehicle id="9" depart="0.97">
        <route edges="-gneE76"/>
    </vehicle>
    <vehicle id="10" depart="1.08">
        <route edges="gneE67 gneE68 -gneE108 -gneE106 -gneE104 gneE103"/>
    </vehicle>
    <vehicle id="11" depart="1.19">
        <route edges="gneE101 gneE96 -gneE85 -gneE72 -gneE71 -gneE70"/>
    </vehicle>
    <vehicle id="12" depart="1.30">
        <route edges="gneE110"/>
    </vehicle>
    <vehicle id="13" depart="1.41">
        <route edges="gneE117 gneE78 -gneE88 gneE80"/>
    </vehicle>
    <vehicle id="14" depart="1.51">
        <route edges="gneE86 -gneE71 -gneE70"/>
    </vehicle>
    <vehicle id="15" depart="1.62">
        <route edges="-gneE104"/>
    </vehicle>
    <vehicle id="16" depart="1.73">
        <route edges="-gneE111 gneE112 gneE114 gneE116 gneE118 -gneE129"/>
    </vehicle>
    <vehicle id="17" depart="1.84">
        <route edges="-gneE99"/>
    </vehicle>
    <vehicle id="18" depart="1.95">
        <route edges="gneE76 -gneE86"/>
    </vehicle>
    <vehicle id="19" depart="2.05">
        <route edges="-gneE92 -gneE105 -gneE104 gneE103 -gneE100"/>
    </vehicle>
    <vehicle id="20" depart="2.16">
        <route edges="-gneE104 gneE103 -gneE100 -gneE126"/>
    </vehicle>
    <vehicle id="21" depart="2.27">
        <route edges="gneE101 gneE96 -gneE85 -gneE75 -gneE111 gneE112 gneE114 gneE116"/>
    </vehicle>
    <vehicle id="22" depart="2.38">
        <route edges="-gneE97 gneE84 gneE74 gneE109 gneE110 gneE112 gneE114 gneE116"/>
    </vehicle>
    <vehicle id="23" depart="2.49">
        <route edges="gneE112 gneE114"/>
    </vehicle>
    <vehicle id="24" depart="2.60">
        <route edges="gneE111 gneE75 gneE85"/>
    </vehicle>
    <vehicle id="25" depart="2.70">
        <route edges="-gneE99 gneE98 -gneE95"/>
    </vehicle>
    <vehicle id="26" depart="2.81">
        <route edges="gneE111 gneE75 gneE85 gneE83"/>
    </vehicle>
    <vehicle id="27" depart="2.92">
        <route edges="-gneE75 -gneE111 gneE112 gneE114 gneE116"/>
    </vehicle>
    <vehicle id="28" depart="3.03">
        <route edges="-gneE123"/>
    </vehicle>
    <vehicle id="29" depart="3.14">
        <route edges="-gneE108 -gneE106 -gneE104 -gneE102 -gneE93 gneE86 -gneE76"/>
    </vehicle>
    <vehicle id="30" depart="3.24">
        <route edges="-gneE89 gneE88 -gneE78 -gneE117 -gneE116 -gneE114"/>
    </vehicle>
    <vehicle id="31" depart="3.35">
        <route edges="-gneE106 -gneE104 gneE103 -gneE100 -gneE99 -gneE97"/>
    </vehicle>
    <vehicle id="32" depart="3.46">
        <route edges="-gneE119 -gneE118 -gneE116 -gneE114 -gneE112 -gneE110 -gneE131"/>
    </vehicle>
    <vehicle id="33" depart="3.57">
        <route edges="gneE74 gneE109 gneE110 gneE112 gneE114 gneE116 gneE118 -gneE130"/>
    </vehicle>
    <vehicle id="34" depart="3.68">
        <route edges="-gneE76 -gneE113 gneE114"/>
    </vehicle>
    <vehicle id="35" depart="3.79">
        <route edges="gneE117 gneE78 -gneE88 gneE80"/>
    </vehicle>
    <vehicle id="36" depart="3.89">
        <route edges="gneE100 -gneE103 gneE104 gneE106 gneE108 -gneE123"/>
    </vehicle>
    <vehicle id="37" depart="4.00">
        <route edges="-gneE72 -gneE71 -gneE70 -gneE88 gneE89"/>
    </vehicle>
    <vehicle id="38" depart="4.11">
        <route edges="gneE114 gneE115 gneE77 gneE87 -gneE92 -gneE105"/>
    </vehicle>
    <vehicle id="39" depart="4.22">
        <route edges="-gneE118 -gneE116 -gneE114 -gneE112"/>
    </vehicle>
    <vehicle id="40" depart="4.33">
        <route edges="-gneE116 -gneE114 -gneE112 -gneE110 -gneE132"/>
    </vehicle>
    <vehicle id="41" depart="4.43">
        <route edges="-gneE77 -gneE115 gneE116 gneE118"/>
    </vehicle>
    <vehicle id="42" depart="4.54">
        <route edges="-gneE103 gneE104 gneE106 gneE108 -gneE68 -gneE67 -gneE66 -gneE65"/>
    </vehicle>
    <vehicle id="43" depart="4.65">
        <route edges="-gneE68 -gneE67"/>
    </vehicle>
    <vehicle id="44" depart="4.76">
        <route edges="gneE117 gneE78 -gneE88 gneE89 gneE91 -gneE94 gneE95"/>
    </vehicle>
    <vehicle id="45" depart="4.87">
        <route edges="gneE118 gneE119 gneE65 gneE66 gneE67"/>
    </vehicle>
    <vehicle id="46" depart="4.97">
        <route edges="gneE87 -gneE92 -gneE105 -gneE104 gneE103 -gneE100 -gneE126"/>
    </vehicle>
    <vehicle id="47" depart="5.08">
        <route edges="-gneE130"/>
    </vehicle>
    <vehicle id="48" depart="5.19">
        <route edges="gneE100 -gneE103 gneE104 gneE106 gneE108 -gneE68 -gneE67 -gneE66 -gneE65 -gneE119 -gneE130"/>
    </vehicle>
    <vehicle id="49" depart="5.30">
        <route edges="-gneE114 -gneE112"/>
    </vehicle>
    <vehicle id="50" depart="5.41">
        <route edges="gneE66 gneE67 -gneE90 gneE91 -gneE94 gneE95 -gneE98"/>
    </vehicle>
    <vehicle id="51" depart="5.52">
        <route edges="gneE112 gneE114 gneE116 gneE117 gneE78 -gneE88 gneE89"/>
    </vehicle>
    <vehicle id="52" depart="5.62">
        <route edges="gneE109 -gneE131"/>
    </vehicle>
    <vehicle id="53" depart="5.73">
        <route edges="-gneE114 -gneE112 -gneE110 -gneE109 -gneE74 -gneE84 gneE97 gneE99 -gneE126"/>
    </vehicle>
    <vehicle id="54" depart="5.84">
        <route edges="-gneE97 gneE84 gneE74 gneE109 gneE110 gneE112 gneE114 gneE116 gneE118 -gneE130"/>
    </vehicle>
    <vehicle id="55" depart="5.95">
        <route edges="-gneE108 -gneE106"/>
    </vehicle>
    <vehicle id="56" depart="6.06">
        <route edges="-gneE123"/>
    </vehicle>
    <vehicle id="57" depart="6.16">
        <route edges="-gneE99 -gneE97 gneE84 gneE74"/>
    </vehicle>
    <vehicle id="58" depart="6.27">
        <route edges="-gneE80 gneE89 -gneE107"/>
    </vehicle>
    <vehicle id="59" depart="6.38">
        <route edges="gneE112 gneE114 gneE116"/>
    </vehicle>
    <vehicle id="60" depart="6.49">
        <route edges="gneE100 -gneE103 gneE104 gneE106 gneE108 -gneE68 -gneE67 -gneE66 -gneE65 -gneE119 -gneE130"/>
    </vehicle>
    <vehicle id="61" depart="6.60">
        <route edges="-gneE63 -gneE62 -gneE61 -gneE60"/>
    </vehicle>
    <vehicle id="62" depart="6.71">
        <route edges="-gneE89 gneE88 -gneE78 -gneE117"/>
    </vehicle>
    <vehicle id="63" depart="6.81">
        <route edges="gneE76 -gneE86 gneE93 gneE95"/>
    </vehicle>
    <vehicle id="64" depart="6.92">
        <route edges="-gneE104 gneE103 -gneE100 -gneE99 -gneE97 gneE84 gneE74 gneE109 -gneE131"/>
    </vehicle>
    <vehicle id="65" depart="7.03">
        <route edges="gneE93 gneE102 gneE103 -gneE100 -gneE126"/>
    </vehicle>
    <vehicle id="66" depart="7.14">
        <route edges="-gneE86"/>
    </vehicle>
    <vehicle id="67" depart="7.25">
        <route edges="-gneE99 -gneE97 gneE84 gneE74"/>
    </vehicle>
    <vehicle id="68" depart="7.35">
        <route edges="gneE103 -gneE100 -gneE125"/>
    </vehicle>
    <vehicle id="69" depart="7.46">
        <route edges="-gneE66 -gneE65 -gneE119 -gneE130"/>
    </vehicle>
    <vehicle id="70" depart="7.57">
        <route edges="gneE119 gneE65 gneE66"/>
    </vehicle>
    <vehicle id="71" depart="7.68">
        <route edges="gneE110"/>
    </vehicle>
    <vehicle id="72" depart="7.79">
        <route edges="gneE119 gneE65 gneE66 gneE67 gneE68 -gneE124"/>
    </vehicle>
    <vehicle id="73" depart="7.89">
        <route edges="gneE107"/>
    </vehicle>
    <vehicle id="74" depart="8.00">
        <route edges="gneE66 gneE67 gneE68 -gneE108 -gneE106 -gneE104 gneE103 -gneE100 -gneE126"/>
    </vehicle>
    <vehicle id="75" depart="8.11">
        <route edges="gneE73 -gneE84 gneE97 gneE99 -gneE125"/>
    </vehicle>
    <vehicle id="76" depart="8.22">
        <route edges="gneE107"/>
    </vehicle>
    <vehicle id="77" depart="8.33">
        <route edges="gneE116 gneE118 gneE119 gneE65 gneE66 gneE67"/>
    </vehicle>
    <vehicle id="78" depart="8.44">
        <route edges="-gneE66 -gneE65 -gneE119 -gneE118 -gneE116 -gneE114"/>
    </vehicle>
    <vehicle id="79" depart="8.54">
        <route edges="-gneE74 -gneE84 gneE97 gneE99 gneE100 -gneE103 gneE104"/>
    </vehicle>
    <vehicle id="80" depart="8.65">
        <route edges="gneE77 gneE87 -gneE92 -gneE94 gneE95"/>
    </vehicle>
    <vehicle id="81" depart="8.76">
        <route edges="gneE66 gneE67 gneE68 -gneE124"/>
    </vehicle>
    <vehicle id="82" depart="8.87">
        <route edges="gneE67 gneE68 -gneE124"/>
    </vehicle>
    <vehicle id="83" depart="8.98">
        <route edges="gneE65"/>
    </vehicle>
    <vehicle id="84" depart="9.08">
        <route edges="-gneE99"/>
    </vehicle>
    <vehicle id="85" depart="9.19">
        <route edges="gneE110"/>
    </vehicle>
    <vehicle id="86" depart="9.30">
        <route edges="gneE75 gneE85 -gneE96 -gneE101 -gneE103 gneE104"/>
    </vehicle>
    <vehicle id="87" depart="9.41">
        <route edges="gneE96 -gneE85 -gneE72 -gneE71 -gneE70 -gneE69"/>
    </vehicle>
    <vehicle id="88" depart="9.52">
        <route edges="-gneE106 -gneE104 gneE103 -gneE100 -gneE125"/>
    </vehicle>
    <vehicle id="89" depart="9.63">
        <route edges="gneE95 gneE96 -gneE85 -gneE75"/>
    </vehicle>
    <vehicle id="90" depart="9.73">
        <route edges="gneE92 -gneE87 -gneE77"/>
    </vehicle>
    <vehicle id="91" depart="9.84">
        <route edges="-gneE74 -gneE84"/>
    </vehicle>
    <vehicle id="92" depart="9.95">
        <route edges="gneE86 -gneE76 -gneE113 -gneE112 -gneE110"/>
    </vehicle>
    <vehicle id="93" depart="10.06">
        <route edges="-gneE99 -gneE97 gneE84"/>
    </vehicle>
    <vehicle id="94" depart="10.17">
        <route edges="gneE100 -gneE103 gneE104 gneE106 gneE107 -gneE89 gneE88"/>
    </vehicle>
    <vehicle id="95" depart="10.27">
        <route edges="-gneE107 -gneE106"/>
    </vehicle>
    <vehicle id="96" depart="10.38">
        <route edges="-gneE65 -gneE119"/>
    </vehicle>
    <vehicle id="97" depart="10.49">
        <route edges="gneE104 gneE106"/>
    </vehicle>
    <vehicle id="98" depart="10.60">
        <route edges="-gneE114 -gneE112 -gneE110 -gneE109 -gneE74 -gneE84 gneE97 gneE99 -gneE126"/>
    </vehicle>
    <vehicle id="99" depart="10.71">
        <route edges="gneE65 gneE66 gneE67 gneE68 -gneE108 -gneE106"/>
    </vehicle>
    <vehicle id="100" depart="10.81">
        <route edges="-gneE108 -gneE106"/>
    </vehicle>
    <vehicle id="101" depart="10.92">
        <route edges="-gneE99 -gneE97 gneE84 gneE74 gneE109 gneE110 gneE112"/>
    </vehicle>
    <vehicle id="102" depart="11.03">
        <route edges="gneE114 gneE115 gneE77 gneE87"/>
    </vehicle>
    <vehicle id="103" depart="11.14">
        <route edges="-gneE88 gneE89 gneE91 -gneE94 gneE95 -gneE98"/>
    </vehicle>
    <vehicle id="104" depart="11.25">
        <route edges="gneE70 gneE71 gneE72 -gneE75"/>
    </vehicle>
    <vehicle id="105" depart="11.36">
        <route edges="-gneE75 -gneE111 gneE112 gneE114 gneE116 gneE118 -gneE130"/>
    </vehicle>
    <vehicle id="106" depart="11.46">
        <route edges="gneE111"/>
    </vehicle>
    <vehicle id="107" depart="11.57">
        <route edges="-gneE84 gneE97 gneE99 gneE100 -gneE103 gneE104 gneE106 gneE108"/>
    </vehicle>
    <vehicle id="108" depart="11.68">
        <route edges="-gneE80 -gneE79 gneE67 gneE68 -gneE124"/>
    </vehicle>
    <vehicle id="109" depart="11.79">
        <route edges="gneE100 -gneE103 gneE104 gneE106 gneE108 -gneE68 -gneE67"/>
    </vehicle>
    <vehicle id="110" depart="11.90">
        <route edges="gneE119 gneE65 gneE66 gneE67"/>
    </vehicle>
    <vehicle id="111" depart="12.00">
        <route edges="gneE96 -gneE85 -gneE75 -gneE111 gneE112 gneE114 gneE116 gneE118 -gneE129"/>
    </vehicle>
    <vehicle id="112" depart="12.11">
        <route edges="-gneE67 -gneE66 -gneE65 -gneE119 -gneE129"/>
    </vehicle>
    <vehicle id="113" depart="12.22">
        <route edges="gneE89 gneE91 -gneE94"/>
    </vehicle>
    <vehicle id="114" depart="12.33">
        <route edges="-gneE85"/>
    </vehicle>
    <vehicle id="115" depart="12.44">
        <route edges="gneE105 -gneE91"/>
    </vehicle>
    <vehicle id="116" depart="12.55">
        <route edges="-gneE74 -gneE84"/>
    </vehicle>
    <vehicle id="117" depart="12.65">
        <route edges="gneE110 gneE112 gneE113 gneE76 -gneE86"/>
    </vehicle>
    <vehicle id="118" depart="12.76">
        <route edges="-gneE68"/>
    </vehicle>
    <vehicle id="119" depart="12.87">
        <route edges="-gneE77"/>
    </vehicle>
    <vehicle id="120" depart="12.98">
        <route edges="gneE65"/>
    </vehicle>
    <vehicle id="121" depart="13.09">
        <route edges="gneE61 gneE62 gneE63 gneE64"/>
    </vehicle>
    <vehicle id="122" depart="13.19">
        <route edges="gneE106"/>
    </vehicle>
    <vehicle id="123" depart="13.30">
        <route edges="gneE101 gneE96 -gneE85 -gneE75 gneE61 gneE62 gneE63"/>
    </vehicle>
    <vehicle id="124" depart="13.41">
        <route edges="-gneE77 gneE63 gneE64"/>
    </vehicle>
    <vehicle id="125" depart="13.52">
        <route edges="gneE110"/>
    </vehicle>
    <vehicle id="126" depart="13.63">
        <route edges="-gneE112"/>
    </vehicle>
    <vehicle id="127" depart="13.73">
        <route edges="gneE105 gneE92 -gneE80"/>
    </vehicle>
    <vehicle id="128" depart="13.84">
        <route edges="gneE119"/>
    </vehicle>
    <vehicle id="129" depart="13.95">
        <route edges="gneE74 gneE109 gneE110 gneE112 gneE114 gneE116 gneE118"/>
    </vehicle>
    <vehicle id="130" depart="14.06">
        <route edges="gneE74 gneE109 -gneE132"/>
    </vehicle>
    <vehicle id="131" depart="14.17">
        <route edges="-gneE71"/>
    </vehicle>
    <vehicle id="132" depart="14.28">
        <route edges="gneE115 -gneE62 -gneE61"/>
    </vehicle>
    <vehicle id="133" depart="14.38">
        <route edges="gneE110"/>
    </vehicle>
    <vehicle id="134" depart="14.49">
        <route edges="-gneE67 -gneE66 -gneE65 -gneE119 -gneE118 -gneE116 -gneE114"/>
    </vehicle>
    <vehicle id="135" depart="14.60">
        <route edges="-gneE67 -gneE66 -gneE65 -gneE119 -gneE118 -gneE116 -gneE114 -gneE112 -gneE110"/>
    </vehicle>
    <vehicle id="136" depart="14.71">
        <route edges="gneE110 gneE112 gneE114 gneE116 gneE118"/>
    </vehicle>
    <vehicle id="137" depart="14.82">
        <route edges="-gneE118"/>
    </vehicle>
    <vehicle id="138" depart="14.92">
        <route edges="gneE108 -gneE68 -gneE67 -gneE66 -gneE65 -gneE119 -gneE129"/>
    </vehicle>
    <vehicle id="139" depart="15.03">
        <route edges="gneE110 gneE112 gneE114 gneE115 gneE77"/>
    </vehicle>
    <vehicle id="140" depart="15.14">
        <route edges="gneE66"/>
    </vehicle>
    <vehicle id="141" depart="15.25">
        <route edges="gneE69 -gneE78"/>
    </vehicle>
    <vehicle id="142" depart="15.36">
        <route edges="gneE100 -gneE103"/>
    </vehicle>
    <vehicle id="143" depart="15.47">
        <route edges="-gneE99"/>
    </vehicle>
    <vehicle id="144" depart="15.57">
        <route edges="-gneE104 gneE103 -gneE100 -gneE99 -gneE97 gneE84 gneE74 gneE109"/>
    </vehicle>
    <vehicle id="145" depart="15.68">
        <route edges="gneE80 gneE81 gneE82 gneE83"/>
    </vehicle>
    <vehicle id="146" depart="15.79">
        <route edges="-gneE99 -gneE97 gneE84 gneE74 gneE60"/>
    </vehicle>
    <vehicle id="147" depart="15.90">
        <route edges="gneE104 gneE106 gneE108 -gneE68 -gneE67"/>
    </vehicle>
    <vehicle id="148" depart="16.01">
        <route edges="-gneE79 gneE67"/>
    </vehicle>
    <vehicle id="149" depart="16.11">
        <route edges="gneE91 gneE92 -gneE87 -gneE77"/>
    </vehicle>
    <vehicle id="150" depart="16.22">
        <route edges="gneE110"/>
    </vehicle>
    <vehicle id="151" depart="16.33">
        <route edges="-gneE112 -gneE110 -gneE109 -gneE74 -gneE84 gneE97 gneE99 -gneE125"/>
    </vehicle>
    <vehicle id="152" depart="16.44">
        <route edges="-gneE99"/>
    </vehicle>
    <vehicle id="153" depart="16.55">
        <route edges="-gneE70 -gneE69 gneE66 gneE67"/>
    </vehicle>
    <vehicle id="154" depart="16.65">
        <route edges="gneE65 gneE66 gneE79"/>
    </vehicle>
    <vehicle id="155" depart="16.76">
        <route edges="-gneE97 gneE84"/>
    </vehicle>
    <vehicle id="156" depart="16.87">
        <route edges="gneE112 gneE114 gneE116 gneE118 -gneE130"/>
    </vehicle>
    <vehicle id="157" depart="16.98">
        <route edges="-gneE92 -gneE105"/>
    </vehicle>
    <vehicle id="158" depart="17.09">
        <route edges="-gneE77 gneE63"/>
    </vehicle>
    <vehicle id="159" depart="17.20">
        <route edges="-gneE108 -gneE106"/>
    </vehicle>
    <vehicle id="160" depart="17.30">
        <route edges="gneE104"/>
    </vehicle>
    <vehicle id="161" depart="17.41">
        <route edges="gneE66 gneE67 gneE68 -gneE108"/>
    </vehicle>
    <vehicle id="162" depart="17.52">
        <route edges="-gneE119 -gneE129"/>
    </vehicle>
    <vehicle id="163" depart="17.63">
        <route edges="-gneE116 -gneE114 -gneE112"/>
    </vehicle>
    <vehicle id="164" depart="17.74">
        <route edges="-gneE99 -gneE97 gneE84 gneE74"/>
    </vehicle>
    <vehicle id="165" depart="17.84">
        <route edges="gneE67 -gneE90 gneE91"/>
    </vehicle>
    <vehicle id="166" depart="17.95">
        <route edges="-gneE111 -gneE110 -gneE132"/>
    </vehicle>
    <vehicle id="167" depart="18.06">
        <route edges="gneE65 gneE66 gneE67 gneE68 -gneE108 -gneE106"/>
    </vehicle>
    <vehicle id="168" depart="18.17">
        <route edges="-gneE105 -gneE104 gneE103 -gneE100"/>
    </vehicle>
    <vehicle id="169" depart="18.28">
        <route edges="gneE64 -gneE119 -gneE129"/>
    </vehicle>
    <vehicle id="170" depart="18.39">
        <route edges="-gneE101 -gneE103 gneE104 gneE106 gneE108"/>
    </vehicle>
    <vehicle id="171" depart="18.49">
        <route edges="-gneE130"/>
    </vehicle>
    <vehicle id="172" depart="18.60">
        <route edges="-gneE108 gneE107"/>
    </vehicle>
    <vehicle id="173" depart="18.71">
        <route edges="-gneE99 gneE98"/>
    </vehicle>
    <vehicle id="174" depart="18.82">
        <route edges="-gneE71 gneE87"/>
    </vehicle>
    <vehicle id="175" depart="18.93">
        <route edges="gneE111 gneE75 gneE85 -gneE96"/>
    </vehicle>
    <vehicle id="176" depart="19.03">
        <route edges="gneE112"/>
    </vehicle>
    <vehicle id="177" depart="19.14">
        <route edges="-gneE102 -gneE93 gneE86 -gneE71"/>
    </vehicle>
    <vehicle id="178" depart="19.25">
        <route edges="-gneE87 -gneE77 gneE63"/>
    </vehicle>
    <vehicle id="179" depart="19.36">
        <route edges="-gneE68"/>
    </vehicle>
    <vehicle id="180" depart="19.47">
        <route edges="-gneE60"/>
    </vehicle>
    <vehicle id="181" depart="19.57">
        <route edges="gneE117 gneE78 gneE70"/>
    </vehicle>
    <vehicle id="182" depart="19.68">
        <route edges="gneE115 gneE77 gneE87 -gneE92 -gneE94"/>
    </vehicle>
    <vehicle id="183" depart="19.79">
        <route edges="gneE74 gneE109 -gneE132"/>
    </vehicle>
    <vehicle id="184" depart="19.90">
        <route edges="gneE101 gneE96 -gneE82 -gneE81"/>
    </vehicle>
    <vehicle id="185" depart="20.01">
        <route edges="gneE112 gneE114 gneE116 gneE118 gneE119 gneE65 gneE66 gneE67 gneE68"/>
    </vehicle>
    <vehicle id="186" depart="20.12">
        <route edges="gneE112 gneE113"/>
    </vehicle>
    <vehicle id="187" depart="20.22">
        <route edges="gneE63 gneE64 -gneE119 -gneE130"/>
    </vehicle>
    <vehicle id="188" depart="20.33">
        <route edges="gneE110"/>
    </vehicle>
    <vehicle id="189" depart="20.44">
        <route edges="gneE81 gneE82 -gneE85 -gneE75"/>
    </vehicle>
    <vehicle id="190" depart="20.55">
        <route edges="-gneE118 -gneE116 -gneE114 -gneE112"/>
    </vehicle>
    <vehicle id="191" depart="20.66">
        <route edges="gneE113 gneE76 -gneE86 gneE93 gneE102 gneE104 gneE106 gneE108 -gneE123"/>
    </vehicle>
    <vehicle id="192" depart="20.76">
        <route edges="gneE85 gneE83"/>
    </vehicle>
    <vehicle id="193" depart="20.87">
        <route edges="gneE85 -gneE96 -gneE101 -gneE103 gneE104 gneE106 gneE108"/>
    </vehicle>
    <vehicle id="194" depart="20.98">
        <route edges="gneE85 -gneE96 -gneE101"/>
    </vehicle>
    <vehicle id="195" depart="21.09">
        <route edges="gneE117 gneE78 -gneE88 gneE89 -gneE107 -gneE106 -gneE104 gneE103"/>
    </vehicle>
    <vehicle id="196" depart="21.20">
        <route edges="-gneE103 gneE104 gneE106 gneE108"/>
    </vehicle>
    <vehicle id="197" depart="21.30">
        <route edges="gneE87 -gneE92 -gneE94"/>
    </vehicle>
    <vehicle id="198" depart="21.41">
        <route edges="-gneE102 -gneE93 gneE86 -gneE76 -gneE113 -gneE112 -gneE110 -gneE132"/>
    </vehicle>
    <vehicle id="199" depart="21.52">
        <route edges="gneE77 gneE87 -gneE92 -gneE105 -gneE104 gneE103 -gneE100"/>
    </vehicle>
    <vehicle id="200" depart="21.63">
        <route edges="gneE65 gneE66 gneE67 gneE68 -gneE108 -gneE106 -gneE104 gneE103 -gneE100 -gneE126"/>
    </vehicle>
    <vehicle id="201" depart="21.74">
        <route edges="-gneE68"/>
    </vehicle>
    <vehicle id="202" depart="21.85">
        <route edges="gneE100 -gneE103 gneE104 gneE106 gneE108 -gneE124"/>
    </vehicle>
    <vehicle id="203" depart="21.95">
        <route edges="gneE61 gneE76"/>
    </vehicle>
    <vehicle id="204" depart="22.06">
        <route edges="gneE70 gneE71 gneE72 gneE73 gneE74"/>
    </vehicle>
    <vehicle id="205" depart="22.17">
        <route edges="-gneE87 -gneE77 -gneE115 gneE116 gneE118 -gneE129"/>
    </vehicle>
    <vehicle id="206" depart="22.28">
        <route edges="gneE65 gneE66 gneE67 -gneE90 gneE91 -gneE94 gneE95"/>
    </vehicle>
    <vehicle id="207" depart="22.39">
        <route edges="-gneE67 -gneE66 -gneE65 -gneE119 -gneE118 -gneE116 -gneE114"/>
    </vehicle>
    <vehicle id="208" depart="22.49">
        <route edges="gneE88 -gneE78 -gneE117 -gneE116 -gneE114 -gneE112 -gneE110"/>
    </vehicle>
    <vehicle id="209" depart="22.60">
        <route edges="-gneE67 -gneE66 -gneE65 -gneE119 -gneE118 -gneE116 -gneE114 -gneE112 -gneE110 -gneE132"/>
    </vehicle>
    <vehicle id="210" depart="22.71">
        <route edges="-gneE131"/>
    </vehicle>
    <vehicle id="211" depart="22.82">
        <route edges="-gneE99"/>
    </vehicle>
    <vehicle id="212" depart="22.93">
        <route edges="gneE69 gneE70 gneE71"/>
    </vehicle>
    <vehicle id="213" depart="23.04">
        <route edges="gneE110"/>
    </vehicle>
    <vehicle id="214" depart="23.14">
        <route edges="-gneE130"/>
    </vehicle>
    <vehicle id="215" depart="23.25">
        <route edges="gneE110"/>
    </vehicle>
    <vehicle id="216" depart="23.36">
        <route edges="gneE64 gneE65 gneE66 gneE67"/>
    </vehicle>
    <vehicle id="217" depart="23.47">
        <route edges="gneE75 gneE85 -gneE96 -gneE98"/>
    </vehicle>
    <vehicle id="218" depart="23.58">
        <route edges="gneE65 gneE66 gneE67 -gneE90"/>
    </vehicle>
    <vehicle id="219" depart="23.68">
        <route edges="gneE112 gneE114 gneE116"/>
    </vehicle>
    <vehicle id="220" depart="23.79">
        <route edges="gneE111 gneE75"/>
    </vehicle>
    <vehicle id="221" depart="23.90">
        <route edges="gneE84 gneE74 gneE109 gneE110"/>
    </vehicle>
    <vehicle id="222" depart="24.01">
        <route edges="-gneE94 gneE95 -gneE98 -gneE97"/>
    </vehicle>
    <vehicle id="223" depart="24.12">
        <route edges="gneE74 gneE60 gneE61 gneE62 gneE63 gneE64"/>
    </vehicle>
    <vehicle id="224" depart="24.22">
        <route edges="-gneE82 gneE93 gneE102"/>
    </vehicle>
    <vehicle id="225" depart="24.33">
        <route edges="gneE92 -gneE87 -gneE77 -gneE115 -gneE114 -gneE112 -gneE110"/>
    </vehicle>
    <vehicle id="226" depart="24.44">
        <route edges="gneE92 -gneE87 -gneE77 -gneE115"/>
    </vehicle>
    <vehicle id="227" depart="24.55">
        <route edges="gneE119 gneE65 gneE66"/>
    </vehicle>
    <vehicle id="228" depart="24.66">
        <route edges="gneE114 gneE116 gneE118 gneE119 gneE65 gneE66 gneE67 gneE68"/>
    </vehicle>
    <vehicle id="229" depart="24.77">
        <route edges="-gneE68 -gneE67 -gneE66 -gneE65 -gneE119"/>
    </vehicle>
    <vehicle id="230" depart="24.87">
        <route edges="-gneE66 -gneE65 -gneE119 -gneE118 -gneE116 -gneE114 -gneE112"/>
    </vehicle>
    <vehicle id="231" depart="24.98">
        <route edges="gneE77 gneE87 -gneE92 -gneE94"/>
    </vehicle>
    <vehicle id="232" depart="25.09">
        <route edges="-gneE131"/>
    </vehicle>
    <vehicle id="233" depart="25.20">
        <route edges="gneE65 gneE69 gneE70 gneE71"/>
    </vehicle>
    <vehicle id="234" depart="25.31">
        <route edges="gneE99 gneE100 -gneE103 gneE104"/>
    </vehicle>
    <vehicle id="235" depart="25.41">
        <route edges="-gneE98 gneE99 -gneE126"/>
    </vehicle>
    <vehicle id="236" depart="25.52">
        <route edges="-gneE118 -gneE116 -gneE114 -gneE112 -gneE110 -gneE132"/>
    </vehicle>
    <vehicle id="237" depart="25.63">
        <route edges="-gneE116 -gneE114 -gneE112"/>
    </vehicle>
    <vehicle id="238" depart="25.74">
        <route edges="gneE67 gneE68 -gneE108 -gneE106"/>
    </vehicle>
    <vehicle id="239" depart="25.85">
        <route edges="gneE80 gneE81 gneE86 -gneE76"/>
    </vehicle>
    <vehicle id="240" depart="25.96">
        <route edges="gneE116 gneE118 gneE119 gneE65 gneE66 gneE67 gneE68 -gneE124"/>
    </vehicle>
    <vehicle id="241" depart="26.06">
        <route edges="gneE100 -gneE103 gneE104 gneE106 gneE108 -gneE68 -gneE67 -gneE66 -gneE65 -gneE119 -gneE130"/>
    </vehicle>
    <vehicle id="242" depart="26.17">
        <route edges="gneE104 gneE106"/>
    </vehicle>
    <vehicle id="243" depart="26.28">
        <route edges="gneE111"/>
    </vehicle>
    <vehicle id="244" depart="26.39">
        <route edges="gneE107"/>
    </vehicle>
    <vehicle id="245" depart="26.50">
        <route edges="gneE60 gneE61 gneE62 gneE63 gneE64 gneE65"/>
    </vehicle>
    <vehicle id="246" depart="26.60">
        <route edges="-gneE106 -gneE104 gneE103 gneE101 gneE96 -gneE85"/>
    </vehicle>
    <vehicle id="247" depart="26.71">
        <route edges="-gneE72 -gneE86 gneE93"/>
    </vehicle>
    <vehicle id="248" depart="26.82">
        <route edges="gneE118 gneE119 gneE65"/>
    </vehicle>
    <vehicle id="249" depart="26.93">
        <route edges="gneE84 gneE74 gneE109 gneE110"/>
    </vehicle>
    <vehicle id="250" depart="27.04">
        <route edges="gneE74 gneE109 gneE110 gneE112 gneE114 gneE116 gneE118"/>
    </vehicle>
    <vehicle id="251" depart="27.14">
        <route edges="-gneE88 gneE89 -gneE107 -gneE106 -gneE104 gneE103 -gneE100"/>
    </vehicle>
    <vehicle id="252" depart="27.25">
        <route edges="gneE110"/>
    </vehicle>
    <vehicle id="253" depart="27.36">
        <route edges="-gneE116"/>
    </vehicle>
    <vehicle id="254" depart="27.47">
        <route edges="-gneE97 gneE84 gneE74 gneE109"/>
    </vehicle>
    <vehicle id="255" depart="27.58">
        <route edges="gneE110"/>
    </vehicle>
    <vehicle id="256" depart="27.69">
        <route edges="-gneE106 -gneE104 gneE103 -gneE100 -gneE99 -gneE97 gneE84"/>
    </vehicle>
    <vehicle id="257" depart="27.79">
        <route edges="gneE75 gneE85 -gneE96 -gneE101 -gneE103 gneE104"/>
    </vehicle>
    <vehicle id="258" depart="27.90">
        <route edges="-gneE97 gneE84 -gneE73 -gneE72 -gneE71 -gneE70"/>
    </vehicle>
    <vehicle id="259" depart="28.01">
        <route edges="-gneE131"/>
    </vehicle>
    <vehicle id="260" depart="28.12">
        <route edges="gneE102 gneE104 gneE106 gneE108 -gneE124"/>
    </vehicle>
    <vehicle id="261" depart="28.23">
        <route edges="-gneE102 -gneE93 gneE86 -gneE76 gneE62"/>
    </vehicle>
    <vehicle id="262" depart="28.33">
        <route edges="gneE106"/>
    </vehicle>
    <vehicle id="263" depart="28.44">
        <route edges="gneE100"/>
    </vehicle>
    <vehicle id="264" depart="28.55">
        <route edges="gneE98 -gneE95 gneE94 -gneE91"/>
    </vehicle>
    <vehicle id="265" depart="28.66">
        <route edges="gneE109 -gneE132"/>
    </vehicle>
    <vehicle id="266" depart="28.77">
        <route edges="gneE65"/>
    </vehicle>
    <vehicle id="267" depart="28.88">
        <route edges="-gneE91 -gneE107"/>
    </vehicle>
    <vehicle id="268" depart="28.98">
        <route edges="gneE96 -gneE85 -gneE75 gneE61"/>
    </vehicle>
    <vehicle id="269" depart="29.09">
        <route edges="-gneE105 -gneE104"/>
    </vehicle>
    <vehicle id="270" depart="29.20">
        <route edges="-gneE99 -gneE97 gneE84 gneE74 gneE60"/>
    </vehicle>