<?xml version="1.0" encoding="UTF-8"?>
<!-- generated on 2022-04-28 18:08:20.043149 by $Id$ UNKNOWN
  options: -r basicRoutes.rou.xml -d expandedCounts.xml -o sampledRoutes.rou.xml
-->
<routes xmlns:xsi="http://www.w3.org/2001/XMLSchema-instance" xsi:noNamespaceSchemaLocation="http://sumo.dlr.de/xsd/routes_file.xsd">
<!-- begin="0.0" end="3600.0" -->
    <vehicle id="0" depart="0.00">
        <route edges="gneE96 -gneE85 -gneE75 -gneE111 gneE112 gneE114 gneE116 gneE118 -gneE130"/>
    </vehicle>
    <vehicle id="1" depart="0.99">
        <route edges="gneE119"/>
    </vehicle>
    <vehicle id="2" depart="1.97">
        <route edges="-gneE110 -gneE109 -gneE74"/>
    </vehicle>
    <vehicle id="3" depart="2.96">
        <route edges="gneE97 gneE99 gneE100 -gneE103 gneE104 gneE106 gneE108 -gneE124"/>
    </vehicle>
    <vehicle id="4" depart="3.95">
        <route edges="gneE79 gneE80 gneE81 gneE82 gneE83"/>
    </vehicle>
    <vehicle id="5" depart="4.94">
        <route edges="gneE113 gneE76 -gneE86 gneE93 gneE102 gneE103 -gneE100 -gneE126"/>
    </vehicle>
    <vehicle id="6" depart="5.92">
        <route edges="-gneE114 -gneE112 -gneE110 -gneE109 -gneE74"/>
    </vehicle>
    <vehicle id="7" depart="6.91">
        <route edges="gneE110 gneE112 gneE114 gneE116 gneE117"/>
    </vehicle>
    <vehicle id="8" depart="7.90">
        <route edges="-gneE102 -gneE93"/>
    </vehicle>
    <vehicle id="9" depart="8.89">
        <route edges="-gneE106 -gneE104 gneE103 -gneE100 -gneE99 -gneE97 gneE84"/>
    </vehicle>
    <vehicle id="10" depart="9.87">
        <route edges="-gneE118 -gneE116 gneE115"/>
    </vehicle>
    <vehicle id="11" depart="10.86">
        <route edges="gneE105 gneE92 -gneE87 -gneE77 -gneE115 -gneE114 -gneE112 -gneE110"/>
    </vehicle>
    <vehicle id="12" depart="11.85">
        <route edges="gneE65 gneE66 gneE67 gneE68 -gneE123"/>
    </vehicle>
    <vehicle id="13" depart="12.84">
        <route edges="-gneE119 -gneE129"/>
    </vehicle>
    <vehicle id="14" depart="13.82">
        <route edges="-gneE123"/>
    </vehicle>
    <vehicle id="15" depart="14.81">
        <route edges="-gneE125"/>
    </vehicle>
    <vehicle id="16" depart="15.80">
        <route edges="-gneE103 gneE104 gneE105 gneE92 -gneE87 -gneE77"/>
    </vehicle>
    <vehicle id="17" depart="16.79">
        <route edges="-gneE90 gneE91 -gneE94 gneE95 -gneE98"/>
    </vehicle>
    <vehicle id="18" depart="17.77">
        <route edges="-gneE68 -gneE67"/>
    </vehicle>
    <vehicle id="19" depart="18.76">
        <route edges="gneE89 -gneE107 -gneE106 -gneE104 gneE103"/>
    </vehicle>
    <vehicle id="20" depart="19.75">
        <route edges="-gneE116 -gneE114 -gneE112 -gneE110 -gneE109 -gneE74 -gneE84 gneE97"/>
    </vehicle>
    <vehicle id="21" depart="20.74">
        <route edges="gneE107 gneE91 -gneE94"/>
    </vehicle>
    <vehicle id="22" depart="21.72">
        <route edges="gneE88 gneE70 gneE71 gneE72 gneE73"/>
    </vehicle>
    <vehicle id="23" depart="22.71">
        <route edges="-gneE118"/>
    </vehicle>
    <vehicle id="24" depart="23.70">
        <route edges="gneE113 gneE76 -gneE86 gneE93 gneE94"/>
    </vehicle>
    <vehicle id="25" depart="24.68">
        <route edges="-gneE61 gneE75 gneE85 -gneE96"/>
    </vehicle>
    <vehicle id="26" depart="25.67">
        <route edges="gneE118 -gneE129"/>
    </vehicle>
    <vehicle id="27" depart="26.66">
        <route edges="-gneE95 -gneE93 gneE86 -gneE76 -gneE113"/>
    </vehicle>
    <vehicle id="28" depart="27.65">
        <route edges="gneE65"/>
    </vehicle>
    <vehicle id="29" depart="28.63">
        <route edges="-gneE74 -gneE73 -gneE72 -gneE71"/>
    </vehicle>
    <vehicle id="30" depart="29.62">
        <route edges="-gneE74 -gneE73 -gneE72 -gneE71"/>
    </vehicle>
    <vehicle id="31" depart="30.61">
        <route edges="-gneE114 -gneE112"/>
    </vehicle>
    <vehicle id="32" depart="31.60">
        <route edges="gneE75 gneE85 -gneE96 -gneE101 -gneE103 gneE104 gneE106 gneE108 -gneE123"/>
    </vehicle>
    <vehicle id="33" depart="32.58">
        <route edges="-gneE89 gneE80 gneE81 gneE82"/>
    </vehicle>
    <vehicle id="34" depart="33.57">
        <route edges="-gneE84 gneE97 gneE99 gneE100 -gneE103 gneE104 gneE106 gneE108 -gneE124"/>
    </vehicle>
    <vehicle id="35" depart="34.56">
        <route edges="gneE93 gneE102 gneE104 gneE106 gneE108 -gneE123"/>
    </vehicle>
    <vehicle id="36" depart="35.55">
        <route edges="gneE80 gneE81 gneE82"/>
    </vehicle>
    <vehicle id="37" depart="36.53">
        <route edges="gneE71"/>
    </vehicle>
    <vehicle id="38" depart="37.52">
        <route edges="gneE76 -gneE86 gneE93 gneE102 gneE104 gneE106 gneE108 -gneE124"/>
    </vehicle>
    <vehicle id="39" depart="38.51">
        <route edges="gneE90 gneE68 -gneE124"/>
    </vehicle>
    <vehicle id="40" depart="39.50">
        <route edges="-gneE116 -gneE114 -gneE112"/>
    </vehicle>
    <vehicle id="41" depart="40.48">
        <route edges="gneE75 gneE85 -gneE96 -gneE95 gneE94"/>
    </vehicle>
    <vehicle id="42" depart="41.47">
        <route edges="gneE60 gneE61 gneE62"/>
    </vehicle>
    <vehicle id="43" depart="42.46">
        <route edges="-gneE85 -gneE75 -gneE111 gneE112 gneE114 gneE116 gneE118 -gneE130"/>
    </vehicle>
    <vehicle id="44" depart="43.44">
        <route edges="-gneE130"/>
    </vehicle>
    <vehicle id="45" depart="44.43">
        <route edges="gneE115 gneE77 gneE87 -gneE92"/>
    </vehicle>
    <vehicle id="46" depart="45.42">
        <route edges="-gneE87 gneE71"/>
    </vehicle>
    <vehicle id="47" depart="46.41">
        <route edges="-gneE64 -gneE63 -gneE62"/>
    </vehicle>
    <vehicle id="48" depart="47.39">
        <route edges="gneE106 gneE108 -gneE124"/>
    </vehicle>
    <vehicle id="49" depart="48.38">
        <route edges="-gneE78 -gneE117 -gneE116 -gneE114 -gneE112 -gneE110"/>
    </vehicle>
    <vehicle id="50" depart="49.37">
        <route edges="-gneE114 -gneE112 -gneE110 -gneE109"/>
    </vehicle>
    <vehicle id="51" depart="50.36">
        <route edges="gneE78 -gneE88 gneE89 -gneE107 -gneE106 -gneE104 gneE103 -gneE100 -gneE126"/>
    </vehicle>
    <vehicle id="52" depart="51.34">
        <route edges="gneE97"/>
    </vehicle>
    <vehicle id="53" depart="52.33">
        <route edges="gneE104 gneE106 gneE108 -gneE68"/>
    </vehicle>
    <vehicle id="54" depart="53.32">
        <route edges="-gneE67 -gneE66 -gneE65 -gneE119 -gneE118"/>
    </vehicle>
    <vehicle id="55" depart="54.31">
        <route edges="-gneE116 gneE115 gneE77"/>
    </vehicle>
    <vehicle id="56" depart="55.29">
        <route edges="-gneE63 -gneE62 -gneE61 -gneE60 -gneE74 -gneE84"/>
    </vehicle>
    <vehicle id="57" depart="56.28">
        <route edges="-gneE103 gneE104 gneE106 gneE108 -gneE68 -gneE67 -gneE66 -gneE65 -gneE119 -gneE130"/>
    </vehicle>
    <vehicle id="58" depart="57.27">
        <route edges="-gneE91 -gneE89 gneE88"/>
    </vehicle>
    <vehicle id="59" depart="58.26">
        <route edges="-gneE109 gneE60 gneE61 gneE62"/>
    </vehicle>
    <vehicle id="60" depart="59.24">
        <route edges="gneE100 -gneE103 gneE104 gneE106 gneE108 -gneE123"/>
    </vehicle>
    <vehicle id="61" depart="60.23">
        <route edges="-gneE87 -gneE77 -gneE115 -gneE114 -gneE112 -gneE110"/>
    </vehicle>
    <vehicle id="62" depart="61.22">
        <route edges="gneE75 gneE85 -gneE96 -gneE101 -gneE103 gneE104 gneE106 gneE108 -gneE124"/>
    </vehicle>
    <vehicle id="63" depart="62.21">
        <route edges="gneE115 gneE77 gneE87 -gneE92 -gneE91 gneE90"/>
    </vehicle>
    <vehicle id="64" depart="63.19">
        <route edges="-gneE118 -gneE116"/>
    </vehicle>
    <vehicle id="65" depart="64.18">
        <route edges="-gneE118 -gneE116 -gneE114 -gneE112"/>
    </vehicle>
    <vehicle id="66" depart="65.17">
        <route edges="-gneE101 -gneE103 gneE104 gneE106 gneE108"/>
    </vehicle>
    <vehicle id="67" depart="66.15">
        <route edges="-gneE74 -gneE73 -gneE72"/>
    </vehicle>
    <vehicle id="68" depart="67.14">
        <route edges="-gneE64 -gneE63 -gneE62 -gneE61 -gneE60 -gneE74 -gneE84"/>
    </vehicle>
    <vehicle id="69" depart="68.13">
        <route edges="-gneE95 gneE94 -gneE91 -gneE89 gneE88 -gneE78"/>
    </vehicle>
    <vehicle id="70" depart="69.12">
        <route edges="-gneE103 -gneE102 -gneE93 gneE86"/>
    </vehicle>
    <vehicle id="71" depart="70.10">
        <route edges="-gneE68 -gneE90 gneE91"/>
    </vehicle>
    <vehicle id="72" depart="71.09">
        <route edges="-gneE73 -gneE72 -gneE71 -gneE70 -gneE78"/>
    </vehicle>
    <vehicle id="73" depart="72.08">
        <route edges="gneE107 -gneE89 gneE88 -gneE78 -gneE117"/>
    </vehicle>
    <vehicle id="74" depart="73.07">
        <route edges="gneE69 gneE70 gneE71 gneE72 gneE85"/>
    </vehicle>
    <vehicle id="75" depart="74.05">
        <route edges="-gneE130"/>
    </vehicle>
    <vehicle id="76" depart="75.04">
        <route edges="-gneE68 -gneE67 -gneE66 -gneE65"/>
    </vehicle>
    <vehicle id="77" depart="76.03">
        <route edges="-gneE66 -gneE65 -gneE119 -gneE118 -gneE116 -gneE114 -gneE112 -gneE110 -gneE131"/>
    </vehicle>
    <vehicle id="78" depart="77.02">
        <route edges="gneE119"/>
    </vehicle>
    <vehicle id="79" depart="78.00">
        <route edges="gneE112"/>
    </vehicle>
    <vehicle id="80" depart="78.99">
        <route edges="-gneE115 -gneE114 -gneE112 -gneE110 -gneE132"/>
    </vehicle>
    <vehicle id="81" depart="79.98">
        <route edges="-gneE118 -gneE116 -gneE114 -gneE112"/>
    </vehicle>
    <vehicle id="82" depart="80.97">
        <route edges="gneE119"/>
    </vehicle>
    <vehicle id="83" depart="81.95">
        <route edges="gneE82 gneE83 gneE97"/>
    </vehicle>
    <vehicle id="84" depart="82.94">
        <route edges="-gneE102 -gneE93 gneE86 -gneE76 -gneE113 -gneE112"/>
    </vehicle>
    <vehicle id="85" depart="83.93">
        <route edges="gneE65 gneE66 gneE67 gneE68 -gneE123"/>
    </vehicle>
    <vehicle id="86" depart="84.91">
        <route edges="-gneE118 -gneE116 -gneE114 -gneE112 -gneE110 -gneE131"/>
    </vehicle>
    <vehicle id="87" depart="85.90">
        <route edges="gneE117 gneE78 -gneE88 -gneE79"/>
    </vehicle>
    <vehicle id="88" depart="86.89">
        <route edges="gneE112"/>
    </vehicle>
    <vehicle id="89" depart="87.88">
        <route edges="-gneE99 -gneE97"/>
    </vehicle>
    <vehicle id="90" depart="88.86">
        <route edges="-gneE113 gneE114 gneE116 gneE118 -gneE129"/>
    </vehicle>
    <vehicle id="91" depart="89.85">
        <route edges="-gneE116 -gneE114"/>
    </vehicle>
    <vehicle id="92" depart="90.84">
        <route edges="-gneE61 gneE75"/>
    </vehicle>
    <vehicle id="93" depart="91.83">
        <route edges="gneE110"/>
    </vehicle>
    <vehicle id="94" depart="92.81">
        <route edges="-gneE108 -gneE106 -gneE104 gneE103 -gneE100 -gneE99 -gneE97 gneE84 gneE74"/>
    </vehicle>
    <vehicle id="95" depart="93.80">
        <route edges="gneE74 gneE109 gneE110 gneE112 gneE114 gneE116 gneE118 -gneE130"/>
    </vehicle>
    <vehicle id="96" depart="94.79">
        <route edges="-gneE123"/>
    </vehicle>
    <vehicle id="97" depart="95.78">
        <route edges="-gneE64 -gneE63 gneE77 gneE87 -gneE92 -gneE105"/>
    </vehicle>
    <vehicle id="98" depart="96.76">
        <route edges="-gneE123"/>
    </vehicle>
    <vehicle id="99" depart="97.75">
        <route edges="gneE68 -gneE123"/>
    </vehicle>
    <vehicle id="100" depart="98.74">
        <route edges="-gneE68 -gneE67 gneE79 gneE80"/>
    </vehicle>
    <vehicle id="101" depart="99.73">
        <route edges="-gneE104 gneE103 -gneE100 -gneE99 -gneE97 gneE84 gneE74 gneE109 -gneE131"/>
    </vehicle>
    <vehicle id="102" depart="100.71">
        <route edges="gneE75 -gneE72 -gneE71 -gneE70 -gneE69"/>
    </vehicle>
    <vehicle id="103" depart="101.70">
        <route edges="gneE100 -gneE103"/>
    </vehicle>
    <vehicle id="104" depart="102.69">
        <route edges="gneE118 gneE119 gneE65 gneE66 gneE67 gneE68 -gneE124"/>
    </vehicle>
    <vehicle id="105" depart="103.68">
        <route edges="-gneE108 -gneE106"/>
    </vehicle>
    <vehicle id="106" depart="104.66">
        <route edges="-gneE109 -gneE74"/>
    </vehicle>
    <vehicle id="107" depart="105.65">
        <route edges="-gneE74 -gneE84 gneE97 gneE99 gneE100 -gneE103 gneE104 gneE106 gneE108 -gneE123"/>
    </vehicle>
    <vehicle id="108" depart="106.64">
        <route edges="gneE115 gneE77 gneE87"/>
    </vehicle>
    <vehicle id="109" depart="107.62">
        <route edges="-gneE95 gneE94 -gneE91 gneE90"/>
    </vehicle>
    <vehicle id="110" depart="108.61">
        <route edges="-gneE76 -gneE113 gneE114 gneE116"/>
    </vehicle>
    <vehicle id="111" depart="109.60">
        <route edges="gneE66 gneE67 gneE68 -gneE108 -gneE106 -gneE104 gneE103 -gneE100 -gneE125"/>
    </vehicle>
    <vehicle id="112" depart="110.59">
        <route edges="-gneE69 gneE66 gneE67 gneE68 -gneE123"/>
    </vehicle>
    <vehicle id="113" depart="111.57">
        <route edges="-gneE109 -gneE74 -gneE84 gneE97 gneE99 gneE100 -gneE103 gneE104"/>
    </vehicle>
    <vehicle id="114" depart="112.56">
        <route edges="-gneE68 -gneE90 gneE91 -gneE94"/>
    </vehicle>
    <vehicle id="115" depart="113.55">
        <route edges="-gneE118 -gneE116 gneE115 gneE77 gneE87"/>
    </vehicle>
    <vehicle id="116" depart="114.54">
        <route edges="gneE105 -gneE94"/>
    </vehicle>
    <vehicle id="117" depart="115.52">
        <route edges="gneE113 gneE76 -gneE86 -gneE81"/>
    </vehicle>
    <vehicle id="118" depart="116.51">
        <route edges="gneE97"/>
    </vehicle>
    <vehicle id="119" depart="117.50">
        <route edges="-gneE75 -gneE111 gneE112 gneE114 gneE116 gneE118"/>
    </vehicle>
    <vehicle id="120" depart="118.49">
        <route edges="gneE100 gneE101"/>
    </vehicle>
    <vehicle id="121" depart="119.47">
        <route edges="gneE105 gneE92 -gneE87 -gneE77 -gneE115 -gneE114"/>
    </vehicle>
    <vehicle id="122" depart="120.46">
        <route edges="-gneE70 -gneE69 gneE66 gneE67 gneE68 -gneE124"/>
    </vehicle>
    <vehicle id="123" depart="121.45">
        <route edges="gneE102 gneE104 gneE106"/>
    </vehicle>
    <vehicle id="124" depart="122.44">
        <route edges="-gneE68 -gneE67"/>
    </vehicle>
    <vehicle id="125" depart="123.42">
        <route edges="gneE100 gneE101 gneE96"/>
    </vehicle>
    <vehicle id="126" depart="124.41">
        <route edges="gneE110"/>
    </vehicle>
    <vehicle id="127" depart="125.40">
        <route edges="gneE92 -gneE87 -gneE77 -gneE115 -gneE114 -gneE112 -gneE110 -gneE131"/>
    </vehicle>
    <vehicle id="128" depart="126.39">
        <route edges="-gneE61 -gneE60 -gneE74 -gneE84 gneE97"/>
    </vehicle>
    <vehicle id="129" depart="127.37">
        <route edges="gneE112 gneE114 gneE116 gneE118 gneE119 gneE65 gneE66 gneE67 gneE68 -gneE123"/>
    </vehicle>
    <vehicle id="130" depart="128.36">
        <route edges="gneE100 -gneE103"/>
    </vehicle>
    <vehicle id="131" depart="129.35">
        <route edges="-gneE97"/>
    </vehicle>
    <vehicle id="132" depart="130.33">
        <route edges="gneE97"/>
    </vehicle>
    <vehicle id="133" depart="131.32">
        <route edges="-gneE109 -gneE74 -gneE73 -gneE72 -gneE71"/>
    </vehicle>
    <vehicle id="134" depart="132.31">
        <route edges="gneE108 -gneE124"/>
    </vehicle>
    <vehicle id="135" depart="133.30">
        <route edges="-gneE63 gneE77"/>
    </vehicle>
    <vehicle id="136" depart="134.28">
        <route edges="-gneE85 -gneE75 -gneE111 gneE112 gneE114 gneE116 gneE118 -gneE130"/>
    </vehicle>
    <vehicle id="137" depart="135.27">
        <route edges="gneE75 gneE85 -gneE96 -gneE95 gneE94"/>
    </vehicle>
    <vehicle id="138" depart="136.26">
        <route edges="gneE89"/>
    </vehicle>
    <vehicle id="139" depart="137.25">
        <route edges="gneE100 -gneE103"/>
    </vehicle>
    <vehicle id="140" depart="138.23">
        <route edges="gneE111 gneE75 gneE85"/>
    </vehicle>
    <vehicle id="141" depart="139.22">
        <route edges="-gneE131"/>
    </vehicle>
    <vehicle id="142" depart="140.21">
        <route edges="-gneE114 -gneE112"/>
    </vehicle>
    <vehicle id="143" depart="141.20">
        <route edges="gneE68 -gneE108 -gneE106 -gneE104 gneE103 -gneE100 -gneE126"/>
    </vehicle>
    <vehicle id="144" depart="142.18">
        <route edges="gneE100"/>
    </vehicle>
    <vehicle id="145" depart="143.17">
        <route edges="-gneE116 -gneE114 gneE113 gneE76"/>
    </vehicle>
    <vehicle id="146" depart="144.16">
        <route edges="gneE113 gneE62 gneE63"/>
    </vehicle>
    <vehicle id="147" depart="145.15">
        <route edges="-gneE110 -gneE109 -gneE74 -gneE84 gneE97"/>
    </vehicle>
    <vehicle id="148" depart="146.13">
        <route edges="gneE87"/>
    </vehicle>
    <vehicle id="149" depart="147.12">
        <route edges="gneE111 gneE75 gneE85 -gneE96 -gneE101 -gneE100 -gneE126"/>
    </vehicle>
    <vehicle id="150" depart="148.11">
        <route edges="-gneE103 gneE104 gneE106 gneE108 -gneE68 -gneE67"/>
    </vehicle>
    <vehicle id="151" depart="149.09">
        <route edges="-gneE78 -gneE63 -gneE62"/>
    </vehicle>
    <vehicle id="152" depart="150.08">
        <route edges="-gneE118 -gneE116 -gneE114 -gneE112 -gneE110 -gneE109 -gneE74 -gneE84"/>
    </vehicle>
    <vehicle id="153" depart="151.07">
        <route edges="-gneE76 -gneE61"/>
    </vehicle>
    <vehicle id="154" depart="152.06">
        <route edges="-gneE109 -gneE74"/>
    </vehicle>
    <vehicle id="155" depart="153.04">
        <route edges="gneE119"/>
    </vehicle>
    <vehicle id="156" depart="154.03">
        <route edges="-gneE131"/>
    </vehicle>
    <vehicle id="157" depart="155.02">
        <route edges="-gneE118"/>
    </vehicle>
    <vehicle id="158" depart="156.01">
        <route edges="-gneE109 -gneE74 -gneE84 -gneE83"/>
    </vehicle>
    <vehicle id="159" depart="156.99">
        <route edges="gneE97 gneE99 gneE100 -gneE103 gneE104"/>
    </vehicle>
    <vehicle id="160" depart="157.98">
        <route edges="gneE100"/>
    </vehicle>
    <vehicle id="161" depart="158.97">
        <route edges="-gneE90 gneE91 -gneE94 gneE95 -gneE98"/>
    </vehicle>
    <vehicle id="162" depart="159.96">
        <route edges="-gneE66 -gneE65 -gneE119 -gneE129"/>
    </vehicle>
    <vehicle id="163" depart="160.94">
        <route edges="-gneE96 -gneE101"/>
    </vehicle>
    <vehicle id="164" depart="161.93">
        <route edges="gneE105 -gneE94"/>
    </vehicle>
    <vehicle id="165" depart="162.92">
        <route edges="gneE119"/>
    </vehicle>
    <vehicle id="166" depart="163.91">
        <route edges="-gneE110 -gneE109 -gneE74 -gneE84 gneE97"/>
    </vehicle>
    <vehicle id="167" depart="164.89">
        <route edges="-gneE118"/>
    </vehicle>
    <vehicle id="168" depart="165.88">
        <route edges="-gneE76 -gneE113 gneE114 gneE116 gneE118 -gneE129"/>
    </vehicle>
    <vehicle id="169" depart="166.87">
        <route edges="-gneE108 -gneE106 -gneE104"/>
    </vehicle>
    <vehicle id="170" depart="167.86">
        <route edges="gneE85 -gneE96 -gneE95"/>
    </vehicle>
    <vehicle id="171" depart="168.84">
        <route edges="gneE105 gneE92 -gneE87 -gneE77"/>
    </vehicle>
    <vehicle id="172" depart="169.83">
        <route edges="gneE104 gneE106 gneE108 -gneE68 -gneE67"/>
    </vehicle>
    <vehicle id="173" depart="170.82">
        <route edges="-gneE109 -gneE74 -gneE84 gneE97 gneE99 gneE100 -gneE103 gneE104"/>
    </vehicle>
    <vehicle id="174" depart="171.80">
        <route edges="gneE100 gneE101"/>
    </vehicle>
    <vehicle id="175" depart="172.79">
        <route edges="-gneE89 gneE88 -gneE78 -gneE117 -gneE116 -gneE114 -gneE112"/>
    </vehicle>
    <vehicle id="176" depart="173.78">
        <route edges="gneE88 -gneE78 -gneE117 -gneE116 -gneE114 -gneE112 -gneE110 -gneE132"/>
    </vehicle>
    <vehicle id="177" depart="174.77">
        <route edges="gneE68 -gneE124"/>
    </vehicle>
    <vehicle id="178" depart="175.75">
        <route edges="gneE115 gneE77 gneE87 -gneE80"/>
    </vehicle>
    <vehicle id="179" depart="176.74">
        <route edges="gneE64 gneE65 gneE66 gneE67 gneE68 -gneE124"/>
    </vehicle>
    <vehicle id="180" depart="177.73">
        <route edges="gneE104"/>
    </vehicle>
    <vehicle id="181" depart="178.72">
        <route edges="-gneE118 -gneE116 -gneE114 gneE113 gneE76 -gneE86 gneE93 gneE102"/>
    </vehicle>
    <vehicle id="182" depart="179.70">
        <route edges="-gneE86 gneE93 gneE94"/>
    </vehicle>
    <vehicle id="183" depart="180.69">
        <route edges="gneE78 -gneE69"/>
    </vehicle>
    <vehicle id="184" depart="181.68">
        <route edges="gneE78 -gneE88 gneE89 -gneE107 -gneE106 -gneE104 gneE103 -gneE100"/>
    </vehicle>
    <vehicle id="185" depart="182.67">
        <route edges="-gneE118"/>
    </vehicle>
    <vehicle id="186" depart="183.65">
        <route edges="-gneE116 -gneE114 -gneE112"/>
    </vehicle>
    <vehicle id="187" depart="184.64">
        <route edges="-gneE90 gneE91"/>
    </vehicle>
    <vehicle id="188" depart="185.63">
        <route edges="gneE107 -gneE89 gneE88 -gneE78 -gneE117 gneE118 -gneE129"/>
    </vehicle>
    <vehicle id="189" depart="186.62">
        <route edges="-gneE108 -gneE106 -gneE104 gneE103 -gneE100 -gneE99 -gneE97 gneE84 gneE74"/>
    </vehicle>
    <vehicle id="190" depart="187.60">
        <route edges="gneE98 -gneE95 -gneE93 gneE86 -gneE76"/>
    </vehicle>
    <vehicle id="191" depart="188.59">
        <route edges="-gneE118"/>
    </vehicle>
    <vehicle id="192" depart="189.58">
        <route edges="gneE112 gneE114 gneE116"/>
    </vehicle>
    <vehicle id="193" depart="190.57">
        <route edges="gneE97"/>
    </vehicle>
    <vehicle id="194" depart="191.55">
        <route edges="gneE66 gneE67 gneE68 -gneE108 -gneE106 -gneE104 gneE103 -gneE100"/>
    </vehicle>
    <vehicle id="195" depart="192.54">
        <route edges="-gneE113 gneE114 gneE116 gneE118 -gneE129"/>
    </vehicle>
    <vehicle id="196" depart="193.53">
        <route edges="-gneE111 gneE112 gneE114 gneE116"/>
    </vehicle>
    <vehicle id="197" depart="194.51">
        <route edges="-gneE68 -gneE90 gneE91"/>
    </vehicle>
    <vehicle id="198" depart="195.50">
        <route edges="gneE92 -gneE87 -gneE77 -gneE115 -gneE114 -gneE112 -gneE110"/>
    </vehicle>
    <vehicle id="199" depart="196.49">
        <route edges="-gneE110 -gneE109 -gneE74 -gneE84 gneE97 gneE99"/>
    </vehicle>
    <vehicle id="200" depart="197.48">
        <route edges="-gneE119 -gneE130"/>
    </vehicle>
    <vehicle id="201" depart="198.46">
        <route edges="-gneE103 gneE104 gneE105 gneE92 -gneE87"/>
    </vehicle>
    <vehicle id="202" depart="199.45">
        <route edges="gneE104"/>
    </vehicle>
    <vehicle id="203" depart="200.44">
        <route edges="-gneE119 -gneE118 -gneE116 -gneE114 -gneE112"/>
    </vehicle>
    <vehicle id="204" depart="201.43">
        <route edges="gneE104 gneE106 gneE107"/>
    </vehicle>
    <vehicle id="205" depart="202.41">
        <route edges="gneE110 gneE112 gneE114 gneE116 gneE118 -gneE130"/>
    </vehicle>
    <vehicle id="206" depart="203.40">
        <route edges="-gneE67"/>
    </vehicle>
    <vehicle id="207" depart="204.39">
        <route edges="-gneE104 gneE103"/>
    </vehicle>
    <vehicle id="208" depart="205.38">
        <route edges="gneE84 gneE74 gneE109 -gneE131"/>
    </vehicle>
    <vehicle id="209" depart="206.36">
        <route edges="-gneE96 -gneE95 gneE94 -gneE91"/>
    </vehicle>
    <vehicle id="210" depart="207.35">
        <route edges="gneE92 gneE81 gneE82 gneE83"/>
    </vehicle>
    <vehicle id="211" depart="208.34">
        <route edges="-gneE118 gneE117 gneE78 -gneE88"/>
    </vehicle>
    <vehicle id="212" depart="209.33">
        <route edges="gneE69 gneE70 gneE87 -gneE92 -gneE105"/>
    </vehicle>
    <vehicle id="213" depart="210.31">
        <route edges="gneE97 gneE99 gneE100 -gneE103 gneE104"/>
    </vehicle>
    <vehicle id="214" depart="211.30">
        <route edges="gneE112 gneE114"/>
    </vehicle>
    <vehicle id="215" depart="212.29">
        <route edges="gneE112 gneE114 gneE116 gneE118 gneE119 gneE65 gneE66"/>
    </vehicle>
    <vehicle id="216" depart="213.27">
        <route edges="gneE70 gneE71"/>
    </vehicle>
    <vehicle id="217" depart="214.26">
        <route edges="-gneE131"/>
    </vehicle>
    <vehicle id="218" depart="215.25">
        <route edges="-gneE91 gneE90 gneE68 -gneE124"/>
    </vehicle>
    <vehicle id="219" depart="216.24">
        <route edges="-gneE68 -gneE67 -gneE66"/>
    </vehicle>
    <vehicle id="220" depart="217.22">
        <route edges="-gneE118"/>
    </vehicle>
    <vehicle id="221" depart="218.21">
        <route edges="-gneE65"/>
    </vehicle>
    <vehicle id="222" depart="219.20">
        <route edges="gneE70 gneE87 -gneE92"/>
    </vehicle>
    <vehicle id="223" depart="220.19">
        <route edges="-gneE118"/>
    </vehicle>
    <vehicle id="224" depart="221.17">
        <route edges="-gneE67 -gneE66 -gneE65 -gneE119"/>
    </vehicle>
    <vehicle id="225" depart="222.16">
        <route edges="-gneE88 gneE89 -gneE107 gneE108"/>
    </vehicle>
    <vehicle id="226" depart="223.15">
        <route edges="-gneE130"/>
    </vehicle>
    <vehicle id="227" depart="224.14">
        <route edges="gneE97 gneE98"/>
    </vehicle>
    <vehicle id="228" depart="225.12">
        <route edges="-gneE123"/>
    </vehicle>
    <vehicle id="229" depart="226.11">
        <route edges="-gneE103 gneE104 gneE105 gneE92 -gneE87 -gneE77"/>
    </vehicle>
    <vehicle id="230" depart="227.10">
        <route edges="-gneE99"/>
    </vehicle>
    <vehicle id="231" depart="228.09">
        <route edges="-gneE104 gneE103 -gneE100 -gneE99 -gneE97 gneE84 gneE74 gneE109 -gneE131"/>
    </vehicle>
    <vehicle id="232" depart="229.07">
        <route edges="-gneE114 -gneE112 -gneE110 -gneE109 -gneE74 -gneE84 gneE97"/>
    </vehicle>
    <vehicle id="233" depart="230.06">
        <route edges="-gneE106 -gneE104 gneE103 -gneE100 -gneE99 -gneE97 gneE84 gneE74"/>
    </vehicle>
    <vehicle id="234" depart="231.05">
        <route edges="gneE67 gneE68 -gneE108 -gneE106 -gneE104 gneE103 -gneE100 -gneE126"/>
    </vehicle>
    <vehicle id="235" depart="232.04">
        <route edges="-gneE67 -gneE66 -gneE65 -gneE119 -gneE118"/>
    </vehicle>
    <vehicle id="236" depart="233.02">
        <route edges="gneE85 -gneE96 -gneE101 -gneE103 gneE104 gneE106"/>
    </vehicle>
    <vehicle id="237" depart="234.01">
        <route edges="-gneE107 -gneE106 -gneE104 gneE103 -gneE100 -gneE126"/>
    </vehicle>
    <vehicle id="238" depart="235.00">
        <route edges="-gneE89 gneE88 gneE70 gneE71 gneE72"/>
    </vehicle>
    <vehicle id="239" depart="235.98">
        <route edges="-gneE76 -gneE113 gneE114 gneE116 gneE118 -gneE130"/>
    </vehicle>
    <vehicle id="240" depart="236.97">
        <route edges="-gneE106 -gneE104"/>
    </vehicle>
    <vehicle id="241" depart="237.96">
        <route edges="gneE115 gneE77 gneE87 -gneE92 -gneE105 -gneE104 gneE103 -gneE100 -gneE126"/>
    </vehicle>
    <vehicle id="242" depart="238.95">
        <route edges="gneE102 gneE104 gneE106 gneE108"/>
    </vehicle>
    <vehicle id="243" depart="239.93">
        <route edges="-gneE68 -gneE67 -gneE66 -gneE65"/>
    </vehicle>
    <vehicle id="244" depart="240.92">
        <route edges="-gneE115"/>
    </vehicle>
    <vehicle id="245" depart="241.91">
        <route edges="gneE76 -gneE86 -gneE81"/>
    </vehicle>
    <vehicle id="246" depart="242.90">
        <route edges="-gneE68 -gneE67"/>
    </vehicle>
    <vehicle id="247" depart="243.88">
        <route edges="-gneE67 -gneE66 -gneE65 -gneE119 -gneE118 -gneE116 -gneE114"/>
    </vehicle>
    <vehicle id="248" depart="244.87">
        <route edges="-gneE114 -gneE112 -gneE110 -gneE132"/>
    </vehicle>
    <vehicle id="249" depart="245.86">
        <route edges="gneE117 gneE78 -gneE88 gneE89 -gneE107 -gneE106 -gneE104 gneE103 -gneE100 -gneE126"/>
    </vehicle>
    <vehicle id="250" depart="246.85">
        <route edges="-gneE119 -gneE118 -gneE116 -gneE114 -gneE112 -gneE110 -gneE132"/>
    </vehicle>
    <vehicle id="251" depart="247.83">
        <route edges="gneE66 gneE67 gneE68 -gneE108 -gneE106 -gneE104 gneE103 -gneE100 -gneE125"/>
    </vehicle>
    <vehicle id="252" depart="248.82">
        <route edges="gneE72 gneE73 -gneE84 gneE97"/>
    </vehicle>
    <vehicle id="253" depart="249.81">
        <route edges="gneE87 -gneE92 -gneE105 -gneE104 gneE103 -gneE100 -gneE125"/>
    </vehicle>
    <vehicle id="254" depart="250.80">
        <route edges="-gneE63 -gneE62 -gneE61 gneE75 gneE85"/>
    </vehicle>
    <vehicle id="255" depart="251.78">
        <route edges="gneE98 -gneE95 -gneE93 gneE86 -gneE76"/>
    </vehicle>
    <vehicle id="256" depart="252.77">
        <route edges="-gneE93 gneE86 -gneE76 -gneE113 gneE114 gneE116 gneE118 -gneE129"/>
    </vehicle>
    <vehicle id="257" depart="253.76">
        <route edges="-gneE65 -gneE64 -gneE63 -gneE62 -gneE61"/>
    </vehicle>
    <vehicle id="258" depart="254.74">
        <route edges="gneE104 gneE106 gneE108 -gneE123"/>
    </vehicle>
    <vehicle id="259" depart="255.73">
        <route edges="-gneE68"/>
    </vehicle>
    <vehicle id="260" depart="256.72">
        <route edges="-gneE74 -gneE84 gneE97 gneE99 gneE100 -gneE103 gneE104"/>
    </vehicle>
    <vehicle id="261" depart="257.71">
        <route edges="-gneE73 -gneE72 -gneE71 -gneE77"/>
    </vehicle>
    <vehicle id="262" depart="258.69">
        <route edges="gneE104 gneE106 gneE108 -gneE68 -gneE67"/>
    </vehicle>
    <vehicle id="263" depart="259.68">
        <route edges="-gneE131"/>
    </vehicle>
    <vehicle id="264" depart="260.67">