<?xml version="1.0" encoding="UTF-8"?>
<!-- generated on 2022-04-19 10:52:33.911098 by $Id$ UNKNOWN
  options: -r basicRoutes.rou.xml <doubleminus>edgedata-files countData.xml -o sampledRoutes.rou.xml
-->
<routes xmlns:xsi="http://www.w3.org/2001/XMLSchema-instance" xsi:noNamespaceSchemaLocation="http://sumo.dlr.de/xsd/routes_file.xsd">
<!-- begin="0.0" end="3600.0" -->
    <vehicle id="0" depart="0.00">
        <route edges="gneE78 -gneE88 gneE89 -gneE107 gneE108 -gneE123"/>
    </vehicle>
    <vehicle id="1" depart="4.85">
        <route edges="-gneE104 gneE103 -gneE100 -gneE99"/>
    </vehicle>
    <vehicle id="2" depart="9.70">
        <route edges="gneE123 -gneE108 -gneE106 -gneE104 gneE103 -gneE100 -gneE125"/>
    </vehicle>
    <vehicle id="3" depart="14.56">
        <route edges="-gneE88 gneE89 -gneE107 -gneE106 -gneE104 gneE103 -gneE100 -gneE125"/>
    </vehicle>
    <vehicle id="4" depart="19.41">
        <route edges="-gneE88 gneE89"/>
    </vehicle>
    <vehicle id="5" depart="24.26">
        <route edges="-gneE96 -gneE101 -gneE103 gneE104 gneE106"/>
    </vehicle>
    <vehicle id="6" depart="29.11">
        <route edges="gneE111 gneE75 gneE85 -gneE96 -gneE101 -gneE100"/>
    </vehicle>
    <vehicle id="7" depart="33.96">
        <route edges="-gneE100 -gneE99 -gneE97 gneE84 gneE74 gneE109 -gneE131"/>
    </vehicle>
    <vehicle id="8" depart="38.81">
        <route edges="gneE85 -gneE96"/>
    </vehicle>
    <vehicle id="9" depart="43.67">
        <route edges="gneE85 -gneE96 -gneE101 -gneE100"/>
    </vehicle>
    <vehicle id="10" depart="48.52">
        <route edges="gneE78 -gneE88 gneE89 gneE91"/>
    </vehicle>
    <vehicle id="11" depart="53.37">
        <route edges="-gneE100 -gneE99 -gneE97 gneE84"/>
    </vehicle>
    <vehicle id="12" depart="58.22">
        <route edges="gneE89 -gneE107 gneE108 -gneE123"/>
    </vehicle>
    <vehicle id="13" depart="63.07">
        <route edges="-gneE106 -gneE104 gneE103 -gneE100 -gneE99 -gneE97 gneE84"/>
    </vehicle>
    <vehicle id="14" depart="67.92">
        <route edges="-gneE86 gneE93 gneE102 gneE103 -gneE100 -gneE126"/>
    </vehicle>
    <vehicle id="15" depart="72.78">
        <route edges="-gneE88 gneE89 gneE91 -gneE94 gneE95 -gneE98"/>
    </vehicle>
    <vehicle id="16" depart="77.63">
        <route edges="-gneE106 -gneE104 gneE103 -gneE100 -gneE99 -gneE97 gneE84 gneE74"/>
    </vehicle>
    <vehicle id="17" depart="82.48">
        <route edges="gneE114 gneE116 gneE117 gneE78 -gneE88 gneE89"/>
    </vehicle>
    <vehicle id="18" depart="87.33">
        <route edges="gneE85 -gneE96 -gneE101"/>
    </vehicle>
    <vehicle id="19" depart="92.18">
        <route edges="gneE78 -gneE88 gneE89 gneE91 -gneE94 gneE95 -gneE98"/>
    </vehicle>
    <vehicle id="20" depart="97.04">
        <route edges="-gneE104 gneE103 -gneE100 -gneE99"/>
    </vehicle>
    <vehicle id="21" depart="101.89">
        <route edges="gneE85 -gneE96 -gneE101"/>
    </vehicle>
    <vehicle id="22" depart="106.74">
        <route edges="gneE124 -gneE108 -gneE106 -gneE104 gneE103 -gneE100 -gneE126"/>
    </vehicle>
    <vehicle id="23" depart="111.59">
        <route edges="gneE124 -gneE108 -gneE106 -gneE104 gneE103 -gneE100 -gneE99 -gneE97 gneE84"/>
    </vehicle>
    <vehicle id="24" depart="116.44">
        <route edges="gneE117 gneE78 -gneE88 gneE89 -gneE107 -gneE106 -gneE104 gneE103"/>
    </vehicle>
    <vehicle id="25" depart="121.29">
        <route edges="-gneE101 -gneE100"/>
    </vehicle>
    <vehicle id="26" depart="126.15">
        <route edges="-gneE104 gneE103 -gneE100 -gneE99 -gneE97 gneE84 gneE74 gneE109 -gneE131"/>
    </vehicle>
    <vehicle id="27" depart="131.00">
        <route edges="gneE112 gneE114 gneE116 gneE117 gneE78 -gneE88 gneE89"/>
    </vehicle>
    <vehicle id="28" depart="135.85">
        <route edges="-gneE92 -gneE105 -gneE104 gneE103 -gneE100 -gneE126"/>
    </vehicle>
    <vehicle id="29" depart="140.70">
        <route edges="gneE66 gneE67 gneE68 -gneE108 -gneE106 -gneE104 gneE103 -gneE100 -gneE126"/>
    </vehicle>
    <vehicle id="30" depart="145.55">
        <route edges="gneE124 -gneE108 -gneE106 -gneE104 gneE103 -gneE100 -gneE125"/>
    </vehicle>
    <vehicle id="31" depart="150.40">
        <route edges="gneE77 gneE87 -gneE92 -gneE105 -gneE104 gneE103 -gneE100 -gneE125"/>
    </vehicle>
    <vehicle id="32" depart="155.26">
        <route edges="gneE116 gneE117 gneE78 -gneE88 gneE89"/>
    </vehicle>
    <vehicle id="33" depart="160.11">
        <route edges="-gneE88 gneE89 -gneE107 -gneE106 -gneE104 gneE103 -gneE100 -gneE126"/>
    </vehicle>
    <vehicle id="34" depart="164.96">
        <route edges="-gneE88 gneE89 -gneE107 gneE108 -gneE123"/>
    </vehicle>
    <vehicle id="35" depart="169.81">
        <route edges="-gneE105 -gneE104 gneE103 -gneE100 -gneE126"/>
    </vehicle>
    <vehicle id="36" depart="174.66">
        <route edges="gneE123 -gneE108 -gneE106 -gneE104 gneE103 -gneE100 -gneE126"/>
    </vehicle>
    <vehicle id="37" depart="179.51">
        <route edges="gneE67 gneE68 -gneE108 -gneE106 -gneE104 gneE103 -gneE100"/>
    </vehicle>
    <vehicle id="38" depart="184.37">
        <route edges="-gneE88 gneE89 -gneE107 gneE108 -gneE123"/>
    </vehicle>
    <vehicle id="39" depart="189.22">
        <route edges="gneE75 gneE85 -gneE96 -gneE101"/>
    </vehicle>
    <vehicle id="40" depart="194.07">
        <route edges="-gneE96 -gneE101 -gneE103 gneE104 gneE106 gneE108"/>
    </vehicle>
    <vehicle id="41" depart="198.92">
        <route edges="-gneE104 gneE103 -gneE100 -gneE99 -gneE97 gneE84 gneE74"/>
    </vehicle>
    <vehicle id="42" depart="203.77">
        <route edges="gneE123 -gneE108 -gneE106 -gneE104 gneE103 -gneE100 -gneE99 -gneE97 gneE84 gneE74 gneE109 -gneE131"/>
    </vehicle>
    <vehicle id="43" depart="208.63">
        <route edges="gneE132 gneE110 gneE111 gneE75 gneE85 -gneE96 -gneE101"/>
    </vehicle>
    <vehicle id="44" depart="213.48">
        <route edges="gneE85 -gneE96 -gneE101 -gneE103 gneE104 gneE106 gneE108"/>
    </vehicle>
    <vehicle id="45" depart="218.33">
        <route edges="-gneE88 gneE89 gneE91 -gneE94"/>
    </vehicle>
    <vehicle id="46" depart="223.18">
        <route edges="gneE123 -gneE108 -gneE106 -gneE104 gneE103 -gneE100 -gneE99 -gneE97 gneE84"/>
    </vehicle>
    <vehicle id="47" depart="228.03">
        <route edges="-gneE104 gneE103 -gneE100 -gneE99"/>
    </vehicle>
    <vehicle id="48" depart="232.88">
        <route edges="gneE66 gneE67 gneE68 -gneE108 -gneE106 -gneE104 gneE103 -gneE100 -gneE126"/>
    </vehicle>
    <vehicle id="49" depart="237.74">
        <route edges="gneE68 -gneE108 -gneE106 -gneE104 gneE103 -gneE100 -gneE125"/>
    </vehicle>
    <vehicle id="50" depart="242.59">
        <route edges="gneE85 -gneE96 -gneE101"/>
    </vehicle>
    <vehicle id="51" depart="247.44">
        <route edges="gneE110 gneE111 gneE75 gneE85 -gneE96 -gneE101"/>
    </vehicle>
    <vehicle id="52" depart="252.29">
        <route edges="gneE114 gneE116 gneE117 gneE78 -gneE88 gneE89"/>
    </vehicle>
    <vehicle id="53" depart="257.14">
        <route edges="gneE89 gneE91"/>
    </vehicle>
    <vehicle id="54" depart="261.99">
        <route edges="-gneE108 -gneE106 -gneE104 gneE103 -gneE100 -gneE125"/>
    </vehicle>
    <vehicle id="55" depart="266.85">
        <route edges="gneE129 gneE119 gneE65 gneE66 gneE67 gneE68 -gneE108 -gneE106 -gneE104 gneE103 -gneE100 -gneE126"/>
    </vehicle>
    <vehicle id="56" depart="271.70">
        <route edges="gneE76 -gneE86 gneE93 gneE102 gneE103 -gneE100 -gneE126"/>
    </vehicle>
    <vehicle id="57" depart="276.55">
        <route edges="gneE102 gneE103 -gneE100 -gneE126"/>
    </vehicle>
    <vehicle id="58" depart="281.40">
        <route edges="gneE89 gneE91"/>
    </vehicle>
    <vehicle id="59" depart="286.25">
        <route edges="gneE78 -gneE88 gneE89 -gneE107 -gneE106 -gneE104 gneE103 -gneE100"/>
    </vehicle>
    <vehicle id="60" depart="291.11">
        <route edges="-gneE100 -gneE126"/>
    </vehicle>
    <vehicle id="61" depart="295.96">
        <route edges="gneE117 gneE78 -gneE88 gneE89 -gneE107 gneE108 -gneE123"/>
    </vehicle>
    <vehicle id="62" depart="300.81">
        <route edges="gneE124 -gneE108 -gneE106 -gneE104 gneE103 -gneE100 -gneE99 -gneE97 gneE84 gneE74"/>
    </vehicle>
    <vehicle id="63" depart="305.66">
        <route edges="gneE66 gneE67 gneE68 -gneE108 -gneE106 -gneE104 gneE103 -gneE100 -gneE125"/>
    </vehicle>
    <vehicle id="64" depart="310.51">
        <route edges="gneE110 gneE111 gneE75 gneE85 -gneE96 -gneE101"/>
    </vehicle>
    <vehicle id="65" depart="315.36">
        <route edges="gneE124 -gneE108 -gneE106 -gneE104 gneE103 -gneE100 -gneE126"/>
    </vehicle>
    <vehicle id="66" depart="320.22">
        <route edges="gneE111 gneE75 gneE85 -gneE96"/>
    </vehicle>
    <vehicle id="67" depart="325.07">
        <route edges="gneE123 -gneE108 -gneE106 -gneE104 gneE103 -gneE100 -gneE99 -gneE97 gneE84 gneE74"/>
    </vehicle>
    <vehicle id="68" depart="329.92">
        <route edges="gneE85 -gneE96 -gneE101 -gneE100"/>
    </vehicle>
    <vehicle id="69" depart="334.77">
        <route edges="-gneE82 -gneE81 -gneE80 gneE89"/>
    </vehicle>
    <vehicle id="70" depart="339.62">
        <route edges="gneE77 gneE87 -gneE92 -gneE105 -gneE104 gneE103 -gneE100"/>
    </vehicle>
    <vehicle id="71" depart="344.47">
        <route edges="gneE112 gneE114 gneE116 gneE117 gneE78 -gneE88 gneE89 -gneE107"/>
    </vehicle>
    <vehicle id="72" depart="349.33">
        <route edges="gneE78 -gneE88 gneE89 -gneE107 -gneE106 -gneE104"/>
    </vehicle>
    <vehicle id="73" depart="354.18">
        <route edges="gneE124 -gneE108 -gneE106 -gneE104 gneE103 -gneE100 -gneE99"/>
    </vehicle>
    <vehicle id="74" depart="359.03">
        <route edges="-gneE106 -gneE104 gneE103 -gneE100 -gneE99 -gneE97 gneE84 gneE74 gneE109 -gneE131"/>
    </vehicle>
    <vehicle id="75" depart="363.88">
        <route edges="gneE112 gneE114 gneE116 gneE117 gneE78 -gneE88 gneE89 -gneE107"/>
    </vehicle>
    <vehicle id="76" depart="368.73">
        <route edges="gneE116 gneE117 gneE78 -gneE88 gneE89"/>
    </vehicle>
    <vehicle id="77" depart="373.58">
        <route edges="gneE119 gneE65 gneE66 gneE67 gneE68 -gneE108 -gneE106 -gneE104 gneE103 -gneE100 -gneE126"/>
    </vehicle>
    <vehicle id="78" depart="378.44">
        <route edges="-gneE96 -gneE101 -gneE103 gneE104 gneE106"/>
    </vehicle>
    <vehicle id="79" depart="383.29">
        <route edges="gneE89 -gneE107 gneE108 -gneE123"/>
    </vehicle>
    <vehicle id="80" depart="388.14">
        <route edges="gneE114 gneE116 gneE117 gneE78 -gneE88 gneE89 -gneE107"/>
    </vehicle>
    <vehicle id="81" depart="392.99">
        <route edges="gneE123 -gneE108 -gneE106 -gneE104 gneE103 -gneE100 -gneE99 -gneE97 gneE84 gneE74 gneE109 -gneE131"/>
    </vehicle>
    <vehicle id="82" depart="397.84">
        <route edges="-gneE88 gneE89 -gneE107"/>
    </vehicle>
    <vehicle id="83" depart="402.70">
        <route edges="gneE123 -gneE108 -gneE106 -gneE104 gneE103 -gneE100 -gneE99 -gneE97 gneE84 gneE74"/>
    </vehicle>
    <vehicle id="84" depart="407.55">
        <route edges="gneE89 -gneE107 -gneE106 -gneE104 gneE103 -gneE100"/>
    </vehicle>
    <vehicle id="85" depart="412.40">
        <route edges="gneE129 -gneE118 -gneE116 -gneE114 -gneE112 gneE111 gneE75 gneE85 -gneE96"/>
    </vehicle>
    <vehicle id="86" depart="417.25">
        <route edges="gneE77 gneE87 -gneE92 -gneE105 -gneE104 gneE103 -gneE100 -gneE125"/>
    </vehicle>
    <vehicle id="87" depart="422.10">
        <route edges="-gneE104 gneE103 -gneE100 -gneE125"/>
    </vehicle>
    <vehicle id="88" depart="426.95">
        <route edges="-gneE106 -gneE104 gneE103 -gneE100 -gneE125"/>
    </vehicle>
    <vehicle id="89" depart="431.81">
        <route edges="gneE132 gneE110 gneE111 gneE75 gneE85 -gneE96"/>
    </vehicle>
    <vehicle id="90" depart="436.66">
        <route edges="gneE117 gneE78 -gneE88 gneE89 -gneE107 gneE108 -gneE123"/>
    </vehicle>
    <vehicle id="91" depart="441.51">
        <route edges="gneE111 gneE75 gneE85 -gneE96 -gneE98"/>
    </vehicle>
    <vehicle id="92" depart="446.36">
        <route edges="gneE110 gneE111 gneE75 gneE85 -gneE96"/>
    </vehicle>
    <vehicle id="93" depart="451.21">
        <route edges="gneE123 -gneE108 -gneE106 -gneE104 gneE103 -gneE100 -gneE125"/>
    </vehicle>
    <vehicle id="94" depart="456.06">
        <route edges="gneE117 gneE78 -gneE88 gneE89 -gneE107"/>
    </vehicle>
    <vehicle id="95" depart="460.92">
        <route edges="gneE117 gneE78 -gneE88 gneE89 gneE91"/>
    </vehicle>
    <vehicle id="96" depart="465.77">
        <route edges="gneE85 -gneE96 -gneE101"/>
    </vehicle>
    <vehicle id="97" depart="470.62">
        <route edges="gneE89 -gneE107 -gneE106"/>
    </vehicle>
    <vehicle id="98" depart="475.47">
        <route edges="-gneE96"/>
    </vehicle>
    <vehicle id="99" depart="480.32">
        <route edges="gneE123 -gneE108 -gneE106 -gneE104 gneE103 -gneE100 -gneE126"/>
    </vehicle>
    <vehicle id="100" depart="485.18">
        <route edges="gneE103 -gneE100 -gneE99 -gneE97 gneE84 gneE74 gneE109 -gneE131"/>
    </vehicle>
    <vehicle id="101" depart="490.03">
        <route edges="gneE123 -gneE108 -gneE106 -gneE104 gneE103 -gneE100 -gneE126"/>
    </vehicle>
    <vehicle id="102" depart="494.88">
        <route edges="gneE124 -gneE108 -gneE106 -gneE104 gneE103 -gneE100 -gneE99 -gneE97 gneE84"/>
    </vehicle>
    <vehicle id="103" depart="499.73">
        <route edges="gneE131 gneE110 gneE112 gneE114 gneE116 gneE117 gneE78 -gneE88 gneE89"/>
    </vehicle>
    <vehicle id="104" depart="504.58">
        <route edges="-gneE96 -gneE101 -gneE103 gneE104 gneE106"/>
    </vehicle>
    <vehicle id="105" depart="509.43">
        <route edges="-gneE72 -gneE71 -gneE70 -gneE88 gneE89"/>
    </vehicle>
    <vehicle id="106" depart="514.29">
        <route edges="gneE65 gneE66 gneE67 gneE68 -gneE108 -gneE106 -gneE104 gneE103 -gneE100"/>
    </vehicle>
    <vehicle id="107" depart="519.14">
        <route edges="gneE123 -gneE108 -gneE106 -gneE104 gneE103 -gneE100 -gneE126"/>
    </vehicle>
    <vehicle id="108" depart="523.99">
        <route edges="-gneE100 -gneE99 -gneE97 gneE84 gneE74 gneE109"/>
    </vehicle>
    <vehicle id="109" depart="528.84">
        <route edges="gneE89 gneE91 -gneE94"/>
    </vehicle>
    <vehicle id="110" depart="533.69">
        <route edges="-gneE108 -gneE106 -gneE104 gneE103 -gneE100 -gneE99 -gneE97"/>
    </vehicle>
    <vehicle id="111" depart="538.54">
        <route edges="-gneE96 -gneE101 -gneE103 gneE104 gneE106 gneE108 -gneE124"/>
    </vehicle>
    <vehicle id="112" depart="543.40">
        <route edges="-gneE104 gneE103 -gneE100 -gneE99 -gneE97 gneE84 gneE74 gneE109"/>
    </vehicle>
    <vehicle id="113" depart="548.25">
        <route edges="gneE103 -gneE100 -gneE125"/>
    </vehicle>
    <vehicle id="114" depart="553.10">
        <route edges="gneE124 -gneE108 -gneE106 -gneE104 gneE103 -gneE100 -gneE99 -gneE97 gneE84 gneE74"/>
    </vehicle>
    <vehicle id="115" depart="557.95">
        <route edges="gneE68 -gneE108 -gneE106 -gneE104 gneE103 -gneE100 -gneE126"/>
    </vehicle>
    <vehicle id="116" depart="562.80">
        <route edges="gneE117 gneE78 -gneE88 gneE89 gneE91 -gneE94 gneE95"/>
    </vehicle>
    <vehicle id="117" depart="567.65">
        <route edges="-gneE88 gneE89 -gneE107 -gneE106 -gneE104 gneE103 -gneE100"/>
    </vehicle>
    <vehicle id="118" depart="572.51">
        <route edges="-gneE107 -gneE106 -gneE104 gneE103 -gneE100 -gneE126"/>
    </vehicle>
    <vehicle id="119" depart="577.36">
        <route edges="-gneE88 gneE89 gneE91 -gneE94"/>
    </vehicle>
    <vehicle id="120" depart="582.21">
        <route edges="gneE93 gneE102 gneE103 -gneE100"/>
    </vehicle>
    <vehicle id="121" depart="587.06">
        <route edges="-gneE88 gneE89"/>
    </vehicle>
    <vehicle id="122" depart="591.91">
        <route edges="-gneE88 gneE89"/>
    </vehicle>
    <vehicle id="123" depart="596.77">
        <route edges="gneE85 -gneE96 -gneE101 -gneE103 gneE104 gneE106 gneE108 -gneE123"/>
    </vehicle>
    <vehicle id="124" depart="601.62">
        <route edges="-gneE100 -gneE99 -gneE97 gneE84"/>
    </vehicle>
    <vehicle id="125" depart="606.47">
        <route edges="-gneE72 -gneE71 -gneE70 -gneE88 gneE89"/>
    </vehicle>
    <vehicle id="126" depart="611.32">
        <route edges="gneE78 -gneE88 gneE89 -gneE107 -gneE106 -gneE104 gneE103 -gneE100 -gneE125"/>
    </vehicle>
    <vehicle id="127" depart="616.17">
        <route edges="gneE116 gneE117 gneE78 -gneE88 gneE89"/>
    </vehicle>
    <vehicle id="128" depart="621.02">
        <route edges="-gneE88 gneE89 -gneE107 gneE108 -gneE123"/>
    </vehicle>
    <vehicle id="129" depart="625.88">
        <route edges="-gneE106 -gneE104 gneE103 -gneE100 -gneE99 -gneE97 gneE84 gneE74"/>
    </vehicle>
    <vehicle id="130" depart="630.73">
        <route edges="gneE110 gneE111 gneE75 gneE85 -gneE96 -gneE101"/>
    </vehicle>
    <vehicle id="131" depart="635.58">
        <route edges="-gneE70 -gneE88 gneE89 -gneE107"/>
    </vehicle>
    <vehicle id="132" depart="640.43">
        <route edges="-gneE100 -gneE99 -gneE97 gneE84 gneE74 gneE109"/>
    </vehicle>
    <vehicle id="133" depart="645.28">
        <route edges="gneE116 gneE117 gneE78 -gneE88 gneE89"/>
    </vehicle>
    <vehicle id="134" depart="650.13">
        <route edges="gneE77 gneE87 -gneE92 -gneE105 -gneE104 gneE103 -gneE100 -gneE126"/>
    </vehicle>
    <vehicle id="135" depart="654.99">
        <route edges="-gneE96 -gneE101 -gneE103 gneE104 gneE106 gneE108"/>
    </vehicle>
    <vehicle id="136" depart="659.84">
        <route edges="gneE87 -gneE92 -gneE105 -gneE104 gneE103 -gneE100 -gneE125"/>
    </vehicle>
    <vehicle id="137" depart="664.69">
        <route edges="-gneE72 -gneE71 -gneE70 -gneE88 gneE89"/>
    </vehicle>
    <vehicle id="138" depart="669.54">
        <route edges="-gneE83 -gneE82 -gneE81 -gneE80 gneE89"/>
    </vehicle>
    <vehicle id="139" depart="674.39">
        <route edges="-gneE80 gneE89 -gneE107"/>
    </vehicle>
    <vehicle id="140" depart="679.25">
        <route edges="gneE76 -gneE86 gneE93 gneE102 gneE103 -gneE100 -gneE126"/>
    </vehicle>
    <vehicle id="141" depart="684.10">
        <route edges="gneE129 gneE119 gneE65 gneE66 gneE67 gneE68 -gneE108 -gneE106 -gneE104 gneE103 -gneE100"/>
    </vehicle>
    <vehicle id="142" depart="688.95">
        <route edges="gneE130 -gneE118 -gneE116 -gneE114 -gneE112 gneE111 gneE75 gneE85 -gneE96"/>
    </vehicle>
    <vehicle id="143" depart="693.80">
        <route edges="gneE123 -gneE108 -gneE106 -gneE104 gneE103 -gneE100 -gneE99 -gneE97 gneE84 gneE74 gneE109"/>
    </vehicle>
    <vehicle id="144" depart="698.65">
        <route edges="gneE66 gneE67 gneE68 -gneE108 -gneE106 -gneE104 gneE103 -gneE100"/>
    </vehicle>
    <vehicle id="145" depart="703.50">
        <route edges="-gneE80 gneE89 -gneE107"/>
    </vehicle>
    <vehicle id="146" depart="708.36">
        <route edges="gneE75 gneE85 -gneE96 -gneE98"/>
    </vehicle>
    <vehicle id="147" depart="713.21">
        <route edges="gneE132 gneE110 gneE112 gneE114 gneE116 gneE117 gneE78 -gneE88 gneE89"/>
    </vehicle>
    <vehicle id="148" depart="718.06">
        <route edges="-gneE82 -gneE81 -gneE80 gneE89"/>
    </vehicle>
    <vehicle id="149" depart="722.91">
        <route edges="-gneE100 -gneE99"/>
    </vehicle>
    <vehicle id="150" depart="727.76">
        <route edges="gneE117 gneE78 -gneE88 gneE89"/>
    </vehicle>
    <vehicle id="151" depart="732.61">
        <route edges="-gneE92 -gneE105 -gneE104 gneE103 -gneE100 -gneE126"/>
    </vehicle>
    <vehicle id="152" depart="737.47">
        <route edges="-gneE96 -gneE101 -gneE103 gneE104 gneE106"/>
    </vehicle>
    <vehicle id="153" depart="742.32">
        <route edges="gneE132 gneE110 gneE112 gneE114 gneE116 gneE117 gneE78 -gneE88 gneE89"/>
    </vehicle>
    <vehicle id="154" depart="747.17">
        <route edges="gneE89"/>
    </vehicle>
    <vehicle id="155" depart="752.02">
        <route edges="gneE77 gneE87 -gneE92 -gneE105 -gneE104 gneE103 -gneE100 -gneE125"/>
    </vehicle>
    <vehicle id="156" depart="756.87">
        <route edges="gneE78 -gneE88 gneE89 -gneE107 -gneE106 -gneE104 gneE103"/>
    </vehicle>
    <vehicle id="157" depart="761.73">
        <route edges="-gneE88 gneE89 -gneE107 -gneE106 -gneE104 gneE103 -gneE100 -gneE126"/>
    </vehicle>
    <vehicle id="158" depart="766.58">
        <route edges="gneE77 gneE87 -gneE92 -gneE105 -gneE104 gneE103 -gneE100 -gneE125"/>
    </vehicle>
    <vehicle id="159" depart="771.43">
        <route edges="gneE87 -gneE92 -gneE105 -gneE104 gneE103 -gneE100"/>
    </vehicle>
    <vehicle id="160" depart="776.28">
        <route edges="-gneE104 gneE103 -gneE100 -gneE99 -gneE97 gneE84 gneE74 gneE109"/>
    </vehicle>
    <vehicle id="161" depart="781.13">
        <route edges="gneE123 -gneE108 -gneE106 -gneE104 gneE103 -gneE100 -gneE126"/>
    </vehicle>
    <vehicle id="162" depart="785.98">
        <route edges="gneE63 gneE78 -gneE88 gneE89 -gneE107"/>
    </vehicle>
    <vehicle id="163" depart="790.84">
        <route edges="-gneE106 -gneE104 gneE103 -gneE100 -gneE99 -gneE97 gneE84 gneE74 gneE109 -gneE131"/>
    </vehicle>
    <vehicle id="164" depart="795.69">
        <route edges="gneE78 -gneE88 gneE89 -gneE107"/>
    </vehicle>
    <vehicle id="165" depart="800.54">
        <route edges="-gneE88 gneE89 -gneE107 -gneE106 -gneE104"/>
    </vehicle>
    <vehicle id="166" depart="805.39">
        <route edges="-gneE81 -gneE80 gneE89"/>
    </vehicle>
    <vehicle id="167" depart="810.24">
        <route edges="gneE75 gneE85 -gneE96 -gneE101"/>
    </vehicle>
    <vehicle id="168" depart="815.09">
        <route edges="-gneE106 -gneE104 gneE103 -gneE100"/>
    </vehicle>
    <vehicle id="169" depart="819.95">
        <route edges="gneE61 gneE62 gneE63 gneE78 -gneE88 gneE89"/>
    </vehicle>
    <vehicle id="170" depart="824.80">
        <route edges="-gneE88 gneE89 gneE91 -gneE94 gneE95 -gneE98"/>
    </vehicle>
    <vehicle id="171" depart="829.65">
        <route edges="-gneE100 -gneE99"/>
    </vehicle>
    <vehicle id="172" depart="834.50">
        <route edges="-gneE72 -gneE71 -gneE70 -gneE88 gneE89"/>
    </vehicle>
    <vehicle id="173" depart="839.35">
        <route edges="gneE63 gneE78 -gneE88 gneE89"/>
    </vehicle>
    <vehicle id="174" depart="844.20">
        <route edges="gneE63 gneE78 -gneE88 gneE89 -gneE107"/>
    </vehicle>
    <vehicle id="175" depart="849.06">
        <route edges="gneE89 -gneE107 -gneE106 -gneE104 gneE103 -gneE100"/>
    </vehicle>
    <vehicle id="176" depart="853.91">
        <route edges="-gneE106 -gneE104 gneE103 -gneE100 -gneE99 -gneE97 gneE84 gneE74"/>
    </vehicle>
    <vehicle id="177" depart="858.76">
        <route edges="gneE123 -gneE108 -gneE106 -gneE104 gneE103 -gneE100 -gneE99 -gneE97 gneE84 gneE74"/>
    </vehicle>
    <vehicle id="178" depart="863.61">
        <route edges="gneE124 -gneE108 -gneE106 -gneE104 gneE103 -gneE100 -gneE99 -gneE97 gneE84"/>
    </vehicle>
    <vehicle id="179" depart="868.46">
        <route edges="-gneE96 -gneE101 -gneE103 gneE104 gneE106 gneE108 -gneE124"/>
    </vehicle>
    <vehicle id="180" depart="873.32">
        <route edges="gneE89 -gneE107 -gneE106 -gneE104 gneE103 -gneE100"/>
    </vehicle>
    <vehicle id="181" depart="878.17">
        <route edges="gneE117 gneE78 -gneE88 gneE89 -gneE107"/>
    </vehicle>
    <vehicle id="182" depart="883.02">
        <route edges="gneE65 gneE66 gneE67 gneE68 -gneE108 -gneE106 -gneE104 gneE103 -gneE100"/>
    </vehicle>
    <vehicle id="183" depart="887.87">
        <route edges="-gneE106 -gneE104 gneE103 -gneE100"/>
    </vehicle>
    <vehicle id="184" depart="892.72">
        <route edges="gneE89"/>
    </vehicle>
    <vehicle id="185" depart="897.57">
        <route edges="gneE123 -gneE108 -gneE106 -gneE104 gneE103 -gneE100 -gneE126"/>
    </vehicle>
    <vehicle id="186" depart="902.43">
        <route edges="gneE89 gneE91 -gneE94"/>
    </vehicle>
    <vehicle id="187" depart="907.28">
        <route edges="gneE102 gneE103 -gneE100 -gneE126"/>
    </vehicle>
    <vehicle id="188" depart="912.13">
        <route edges="-gneE104 gneE103 -gneE100 -gneE99"/>
    </vehicle>
    <vehicle id="189" depart="916.98">
        <route edges="-gneE104 gneE103 -gneE100 -gneE125"/>
    </vehicle>
    <vehicle id="190" depart="921.83">
        <route edges="-gneE96 -gneE101 -gneE103 gneE104 gneE106 gneE108 -gneE123"/>
    </vehicle>
    <vehicle id="191" depart="926.68">
        <route edges="-gneE101 -gneE100"/>
    </vehicle>
    <vehicle id="192" depart="931.54">
        <route edges="-gneE72 -gneE71 -gneE70 -gneE88 gneE89"/>
    </vehicle>
    <vehicle id="193" depart="936.39">
        <route edges="gneE124 -gneE108 -gneE106 -gneE104 gneE103 -gneE100 -gneE125"/>
    </vehicle>
    <vehicle id="194" depart="941.24">
        <route edges="gneE103 -gneE100 -gneE99 -gneE97 gneE84 gneE74"/>
    </vehicle>
    <vehicle id="195" depart="946.09">
        <route edges="-gneE81 -gneE80 gneE89"/>
    </vehicle>
    <vehicle id="196" depart="950.94">
        <route edges="gneE78 -gneE88 gneE89 -gneE107 -gneE106 -gneE104 gneE103 -gneE100 -gneE125"/>
    </vehicle>
    <vehicle id="197" depart="955.80">
        <route edges="gneE116 gneE117 gneE78 -gneE88 gneE89"/>
    </vehicle>
    <vehicle id="198" depart="960.65">
        <route edges="gneE129 -gneE118 -gneE116 -gneE114 -gneE112 gneE111 gneE75 gneE85 -gneE96"/>
    </vehicle>
    <vehicle id="199" depart="965.50">
        <route edges="gneE87 -gneE92 -gneE105 -gneE104 gneE103 -gneE100"/>
    </vehicle>
    <vehicle id="200" depart="970.35">
        <route edges="-gneE106 -gneE104 gneE103 -gneE100"/>
    </vehicle>
    <vehicle id="201" depart="975.20">
        <route edges="gneE102 gneE103 -gneE100 -gneE126"/>
    </vehicle>
    <vehicle id="202" depart="980.05">
        <route edges="gneE89 -gneE107 -gneE106 -gneE104"/>
    </vehicle>
    <vehicle id="203" depart="984.91">
        <route edges="-gneE108 -gneE106 -gneE104 gneE103 -gneE100 -gneE99 -gneE97 gneE84 gneE74 gneE109"/>
    </vehicle>
    <vehicle id="204" depart="989.76">
        <route edges="gneE78 -gneE88 gneE89 -gneE107 -gneE106 -gneE104 gneE103 -gneE100"/>
    </vehicle>
    <vehicle id="205" depart="994.61">
        <route edges="gneE75 gneE85 -gneE96 -gneE101 -gneE103 gneE104 gneE106 gneE108 -gneE123"/>
    </vehicle>
    <vehicle id="206" depart="999.46">
        <route edges="-gneE108 -gneE106 -gneE104 gneE103 -gneE100 -gneE99 -gneE97"/>
    </vehicle>
    <vehicle id="207" depart="1004.31">
        <route edges="-gneE96 -gneE101 -gneE103 gneE104 gneE106 gneE108 -gneE123"/>
    </vehicle>
    <vehicle id="208" depart="1009.16">
        <route edges="gneE78 -gneE88 gneE89 -gneE107 -gneE106 -gneE104 gneE103"/>
    </vehicle>
    <vehicle id="209" depart="1014.02">
        <route edges="gneE68 -gneE108 -gneE106 -gneE104 gneE103 -gneE100 -gneE125"/>
    </vehicle>
    <vehicle id="210" depart="1018.87">
        <route edges="gneE89 -gneE107 gneE108 -gneE123"/>
    </vehicle>
    <vehicle id="211" depart="1023.72">
        <route edges="-gneE100 -gneE99"/>
    </vehicle>
    <vehicle id="212" depart="1028.57">
        <route edges="gneE78 -gneE88 gneE89 -gneE107 -gneE106 -gneE104 gneE103 -gneE100 -gneE125"/>
    </vehicle>
    <vehicle id="213" depart="1033.42">
        <route edges="gneE123 -gneE108 -gneE106 -gneE104 gneE103 -gneE100"/>
    </vehicle>
    <vehicle id="214" depart="1038.27">
        <route edges="gneE75 gneE85 -gneE96"/>
    </vehicle>
    <vehicle id="215" depart="1043.13">
        <route edges="gneE78 -gneE88 gneE89 -gneE107"/>
    </vehicle>
    <vehicle id="216" depart="1047.98">
        <route edges="-gneE88 gneE89 -gneE107 -gneE106 -gneE104 gneE103 -gneE100"/>
    </vehicle>
    <vehicle id="217" depart="1052.83">
        <route edges="gneE78 -gneE88 gneE89 -gneE107 -gneE106 -gneE104 gneE103 -gneE100 -gneE125"/>
    </vehicle>
    <vehicle id="218" depart="1057.68">
        <route edges="gneE62 gneE63 gneE78 -gneE88 gneE89"/>
    </vehicle>
    <vehicle id="219" depart="1062.53">
        <route edges="gneE78 -gneE88 gneE89 gneE91 -gneE94 gneE95 -gneE98"/>
    </vehicle>
    <vehicle id="220" depart="1067.39">
        <route edges="-gneE88 gneE89"/>
    </vehicle>
    <vehicle id="221" depart="1072.24">
        <route edges="gneE85 -gneE96 -gneE101 -gneE103 gneE104 gneE106 gneE108 -gneE123"/>
    </vehicle>
    <vehicle id="222" depart="1077.09">
        <route edges="-gneE106 -gneE104 gneE103 -gneE100 -gneE99 -gneE97 gneE84 gneE74"/>
    </vehicle>
    <vehicle id="223" depart="1081.94">
        <route edges="gneE63 gneE78 -gneE88 gneE89"/>
    </vehicle>
    <vehicle id="224" depart="1086.79">
        <route edges="-gneE104 gneE103 -gneE100 -gneE126"/>
    </vehicle>
    <vehicle id="225" depart="1091.64">
        <route edges="gneE117 gneE78 -gneE88 gneE89 gneE91"/>
    </vehicle>
    <vehicle id="226" depart="1096.50">
        <route edges="gneE124 -gneE108 -gneE106 -gneE104 gneE103 -gneE100 -gneE126"/>
    </vehicle>
    <vehicle id="227" depart="1101.35">
        <route edges="gneE78 -gneE88 gneE89 gneE91 -gneE94"/>
    </vehicle>
    <vehicle id="228" depart="1106.20">
        <route edges="gneE87 -gneE92 -gneE105 -gneE104 gneE103 -gneE100 -gneE126"/>
    </vehicle>
    <vehicle id="229" depart="1111.05">
        <route edges="-gneE104 gneE103 -gneE100 -gneE126"/>
    </vehicle>
    <vehicle id="230" depart="1115.90">
        <route edges="-gneE104 gneE103 -gneE100 -gneE99 -gneE97 gneE84 gneE74"/>
    </vehicle>
    <vehicle id="231" depart="1120.75">
        <route edges="-gneE105 -gneE104 gneE103 -gneE100 -gneE125"/>
    </vehicle>