<?xml version="1.0" encoding="UTF-8"?>

<!-- generated on 2022-04-20 12:32:58 by Eclipse SUMO duarouter Version 1.10.0
<configuration xmlns:xsi="http://www.w3.org/2001/XMLSchema-instance" xsi:noNamespaceSchemaLocation="http://sumo.dlr.de/xsd/duarouterConfiguration.xsd">

    <input>
        <net-file value="bath2.net.xml"/>
        <route-files value="simpleTrips.trips.xml"/>
        <junction-taz value="true"/>
    </input>

    <output>
        <output-file value="basicRoutes.rou.xml"/>
        <alternatives-output value="basicRoutes.rou.alt.xml"/>
    </output>

</configuration>
-->

<routes xmlns:xsi="http://www.w3.org/2001/XMLSchema-instance" xsi:noNamespaceSchemaLocation="http://sumo.dlr.de/xsd/routes_file.xsd">
    <vehicle id="0" depart="0.00">
        <route edges="3086259#0 3086261 3091989#1 -2524 30991997#1 1040747475 55296264#1 55290812#0 48207221 2742 52573120 52030081 52030084#0 38964070#0 50842685#0 50842685#1 2745#0 192671933#0 3025839#0 133875262#0"/>
    </vehicle>
    <vehicle id="1" depart="1.00">
        <route edges="837573373#0 837573373#2 837573373#4 4825792 164650608 141841564#2 141841564#3 -5191097#3"/>
    </vehicle>
    <vehicle id="2" depart="2.00">
        <route edges="-39645355#0 837573373#4 4825792 164650608 141841564#2 141841564#3 141841564#7 39654987#0 133875252#3 4338448#0 48665005 115952095#0 -546225667#1 -884727976#2 -8769288#1 -167257#1 3120967#0 773250139#1 331545472#2 -210#1 -55290798#2 -209#3 -3292445#8 -3292445#2 gneE12 gneE13 3292444#0.4 3292451#0 3292450"/>
    </vehicle>
    <vehicle id="3" depart="3.00">
        <route edges="55290813#0 -4279571 -175773133 683583893 115353253#0 115353253#1 48206750 -54401052#2 -3024771 -2960931#0 326284103 54401064 192674702#0"/>
    </vehicle>
    <vehicle id="4" depart="4.00">
        <route edges="133875252#0 7995397#0 -141841564#11 -141841564#6 -141841564#2 -141841564#1"/>
    </vehicle>
    <vehicle id="5" depart="5.00">
        <route edges="-39645355#0 837573373#4 4825792 164650608 141841564#2 141841564#3 141841564#7 39654987#0 133875252#3 4338448#0 48665005 115952095#0 -546225667#1 -884727976#2 -8769288#1 -167257#1 3120967#0 773250139#1 331545472#2 3086259#0 3086261 3091989#1 -2524"/>
    </vehicle>
    <vehicle id="6" depart="6.00">
        <route edges="-3025839#7 -447465369 -2745#1 -3609801#3 2748#0 -37777243#4"/>
    </vehicle>
    <vehicle id="7" depart="7.00">
        <route edges="-4231711 -3086258 331545472#2 3086259#0 3086261 3091989#1 -2524 30991997#1 1040747475 55296264#1"/>
    </vehicle>
    <vehicle id="8" depart="8.00">
        <route edges="-39645355#1 -39645355#0 837573373#4 4825792 164650608 141841564#2 141841564#3 141841564#7 39654987#0 133875252#3 4338448#0 48665005 115952095#0 -546225667#1 -884727976#2 -8769288#1 -167257#1 3120967#0 773250139#1 331545472#2 -210#1 -55290798#2 -209#3 -3292445#8 -3292445#2 gneE12 -192668650#4 -192668650#2 -192668650#1 192668649#1 192668647 959553052#0"/>
    </vehicle>
    <vehicle id="9" depart="9.00">
        <route edges="-3026118#5 -3025859#5 -3025859#3 -351684503 -351685326 -55290805 34243632#0 133875195#0 133875195#3 55290800 55290807 55290799 -133875223#19 -133875223#16"/>
    </vehicle>
    <vehicle id="10" depart="10.00">
        <route edges="197960551 55290809#0 3441738#0 55290801 4236439#0 4236439#1 3441067#0 -203240967#2 -198245314#0 3609801#1"/>
    </vehicle>
    <vehicle id="11" depart="11.00">
        <route edges="-884727976#2 -8769288#1 -167257#1 8769305 -4231711"/>
    </vehicle>
    <vehicle id="12" depart="12.00">
        <route edges="984881211 984881213 54401061 54401064 192674702#0 279357279#1 192674701 58295596#0 -240290973#1 48586336#1 133875263 38963969#0 38963969#1 -192674402#2 -192674402#1 -959553052#4 -959553052#2 -34784840#1 39183706 192668650#2 192668650#3 gneE13"/>
    </vehicle>
    <vehicle id="13" depart="13.00">
        <route edges="-2955307#2 -2955307#1 -3026118#5 3025859#6 3025859#8 133875261#0 133875262#0 133875260#0 48586818 984881213 48586812 48586837"/>
    </vehicle>
    <vehicle id="14" depart="14.00">
        <route edges="5191097#2 141841564#7 39654987#0 133875252#3 133875256#0 133875255 4338449#0 4357619 133875223#0 133875223#1 133875223#3 133875223#6 133875223#11 133875223#17 984881209 55290796 4346053 3027099#0 505404870#0 351684045#0 133875181#0 351684503 3025859#0"/>
    </vehicle>
    <vehicle id="15" depart="15.00">
        <route edges="197960551 55290809#0 3441738#0 55290801 4236439#0 39333603"/>
    </vehicle>
    <vehicle id="16" depart="16.00">
        <route edges="2765 52573118#0 2755#0 52573119 -55290812#1 -2756#1 2757#0 2757#1 1025513686#0 1025513686#1 188924487#0 -3292445#8 -3292445#2"/>
    </vehicle>
    <vehicle id="17" depart="17.00">
        <route edges="133875172 133875174 38963969#1 133875178#0 133875177 133875176 133875182#3 -48586336#2 240290973#0 48586337 54649790 54401052#0 54401052#1 54401052#2 414017617 683648842#0 683648842#1 3024957 175773133 3024962 48207559 52030084#0 2765"/>
    </vehicle>
    <vehicle id="18" depart="18.00">
        <route edges="-58295596#1 -192674701 -279357279#1 326284091 984881212 54401067 54401075 48586825 -133875260#3 -133875262#1 -3025839#7 -447465369 -2745#1 -3609801#3 2743#0 -2743#1 -26312537#4 3058153"/>
    </vehicle>
    <vehicle id="19" depart="19.00">
        <route edges="-54401052#1 -54401052#0 -54649790 373843895 48586336#1 133875263 38963969#0 38963969#1 -192674402#2"/>
    </vehicle>
    <vehicle id="20" depart="20.00">
        <route edges="38963969#1 -192674402#2 -192674402#1 -959553052#4 -959553052#2 -34784840#1 39183706 192668650#2"/>
    </vehicle>
    <vehicle id="21" depart="21.00">
        <route edges="-403281808 -403281810#1 5191097#2 141841564#7 39654987#0 133875252#3 4338448#0 48665005 115952095#0 -546225667#1"/>
    </vehicle>
    <vehicle id="22" depart="22.00">
        <route edges="-267651978 141841564#3 141841564#7 39654987#0 133875252#3 4338448#0 48665005 115952095#0 -546225667#1 -884727976#2 -55602323#6 4231695#0 4231695#3 4231696#1 -4231696#1 -416688557"/>
    </vehicle>
    <vehicle id="23" depart="23.00">
        <route edges="-2960939 -54401052#0 -2960931#1 -2960931#0 326284103 54401064 984881214 984881212 54401067 54401075 48586825 -133875260#3 -133875262#1 -133875261#1 -3025859#8 -3025859#7 -3025859#5 -3025859#3 -351684503 -351685326 -55290805 34243632#0 133875195#0 133875195#3 55290800 55290807 55290799 -133875223#19 -133875223#16 -133875223#10 -133875223#4 -133875223#1 -133875223#0 -4357619 4340722#0 133875244#0 4338446#0 133875252#0 7995397#0 -141841564#11 -5191097#3 -5191097#1"/>
    </vehicle>
    <vehicle id="24" depart="24.00">
        <route edges="-32751327 309842640#0 39352131#0 39352131#2 39352131#3 837572187#0 837572187#1 837573373#0 837573373#2 837573373#4 444272568#1 -gneE28 -gneE45 -gneE43 -gneE26 -gneE25 404611919#0 gneE51 -gneE53"/>
    </vehicle>
    <vehicle id="25" depart="25.00">
        <route edges="115353253#1 683648843 683648842#0 683648842#1 3024957 175773133 3024962 48207559 52030084#0 38964070#0"/>
    </vehicle>
    <vehicle id="26" depart="26.00">
        <route edges="-444272568#2 4825792 164650608 141841564#2 141841564#3 141841564#7 39654987#0 133875252#3 4338448#0 48665005 115952095#0 -546225667#1 -884727976#2 -8769288#1 -167257#1 3120967#0 773250139#1 331545472#2 3086259#0 3086261 3091989#1 -2524 30991997#1 1040747475 2757#1 1025513686#0 1025513686#1 2761 188924488#0 7985210#1"/>
    </vehicle>
    <vehicle id="27" depart="27.00">
        <route edges="326284103 54401064 984881214 984881212 54401067 54401075 48586825 -133875260#3 -133875262#1 -133875261#1 -3025859#8 -3025859#7 -3025859#5 -3026116#5 -54516245#0"/>
    </vehicle>
    <vehicle id="28" depart="28.00">
        <route edges="-3292445#2 gneE12 gneE13 3292444#0.4 899645883#2 899645883#5 74552388#2 7985210#0 7985210#1 32751328 1025513686#0 1025513686#1 188924487#0 209#0 55290798#0 210#1 30992002 -3120967#1 167257#0 167257#2 -55602323#6 -55602323#1 -55602323#0 -55296249#2 -4644987#1 -4227221 3058212#0 197062472"/>
    </vehicle>
    <vehicle id="29" depart="29.00">
        <route edges="-546225667#1 -884727976#2 -8769288#1 -167257#1 3120967#0 773250139#1 331545472#2 3086259#0 3086261 3091989#1 -2524 30991997#1 1040747475 55296264#1 55290812#0 48207221 2742 52573120 55290813#0 -4279571 -175773133 683583893 115353253#0 115353253#1 48206750 -54401052#2 -54401052#1 -54401052#0 -54649790 373843895 48586336#1 133875263 38963969#0 38963969#1 133875178#0"/>
    </vehicle>
    <vehicle id="30" depart="30.00">
        <route edges="gneE50 gneE53 -gneE52 -133875245#3 -133875245#2 -133875236#3 -133875236#1 -133875229 -180869463#1 -133875249#2 -133875226#2 -133875226#0 -3381569#3 94820#0 133875252#0 133875252#1 133875252#3 4338448#0 48665005 115952095#0 -546225667#1 -884727976#2 -8769288#1 -167257#1 8769305 -4231711"/>
    </vehicle>
    <vehicle id="31" depart="31.00">
        <route edges="3024961 192674402#2 133875178#0 133875177 133875176 133875182#3 -48586336#2 240290973#0 -58295596#1 -192674701 -279357279#1 326284091 984881212 54401067 54401075 48586825 -133875260#3 -133875262#1 -133875261#1 -3025859#8 -3025859#7 -3025859#5 -3025859#3 -351684503 -351685326 -55290805 34243632#0"/>
    </vehicle>
    <vehicle id="32" depart="32.00">
        <route edges="39348547#1 -3609801#3 2748#0 -37777243#4 37777243#0 198245314#1 55296262 197960551 55290809#0 3441738#0 55290801 -2527#2"/>
    </vehicle>
    <vehicle id="33" depart="33.00">
        <route edges="-403281810#1 5191097#2"/>
    </vehicle>
    <vehicle id="34" depart="34.00">
        <route edges="-55602323#1 -55602323#0 -55296249#2 -4644987#1 2527#0 4236439#0 4236439#1 3441067#0 55296262 4479201#0 4346053 3027099#0 505404870#0 351684045#0 133875181#0 351684503 3025859#0 3025859#5 3026118#0"/>
    </vehicle>
    <vehicle id="36" depart="36.00">
        <route edges="55290796 4346053 55290810 55290800 55290807 55290799 -133875223#19 -133875223#16 -133875223#10 4479202#0"/>
    </vehicle>
    <vehicle id="37" depart="37.00">
        <route edges="gneE12 -192668650#4 -192668650#2 -192668650#1 192668649#1 192668647 959553052#0 959553052#3 192674402#0 192674402#2 133875178#0 133875177 133875176 133875182#3 -48586336#2 240290973#0 -58295596#1 -192674701 -279357279#1 326284091 984881212 54401067 54401075 48586825 -133875260#3 -133875262#1 -133875261#1 -3025859#8 -3025859#7 -3025859#5 -3025859#3 -351684503 -351685326 -55290805 34243632#0 133875195#0 133875195#3"/>
    </vehicle>
    <vehicle id="38" depart="38.00">
        <route edges="683648843 683648842#0 683648842#1 3024957 175773133"/>
    </vehicle>
    <vehicle id="39" depart="39.00">
        <route edges="-4357619 4340722#0 133875244#0 4338446#0 133875252#0 133875252#1 133875252#3 4338448#0 48665005 115952095#0 -546225667#1 -884727976#2 -55602323#6"/>
    </vehicle>
    <vehicle id="40" depart="40.00">
        <route edges="-50600070#4 -3024958#0 115353253#1 683648843 683648842#0 683648842#1 3024957 175773133 3024962 48207559 52030084#0 2765 52573118#0 2755#0 52573119 -55290812#1 -2756#1 2757#0 2757#1 1025513686#0 1025513686#1 188924487#0 209#0 55290798#0 210#1 30992002 -3120967#1 8769305 309842640#0 39352131#0 39352131#2 39352131#3 837572187#0 837572187#1 837573373#0 837573373#2 837573373#4"/>
    </vehicle>
    <vehicle id="41" depart="41.00">
        <route edges="-3025859#7 -3025859#5 -3025859#3 -351684503 -351685326 -55290805 34243632#0 133875195#0 133875195#3 55290800 55290807 55290799 984881209 37777462 55290809#0"/>
    </vehicle>
    <vehicle id="42" depart="42.00">
        <route edges="-133875223#16 -133875223#10 -133875223#4 -133875223#1 -133875223#0 -4357619 4340722#0 133875244#0 4338446#0 133875252#0 7995397#0 -141841564#11 -141841564#6 -141841564#2"/>
    </vehicle>
    <vehicle id="43" depart="43.00">
        <route edges="-133875245#3 -133875245#2 -133875236#3 -133875236#1 -133875229 -180869463#1 -133875249#2 -133875226#2 -133875226#0 -3381569#3 94820#0 133875252#0 133875252#1 133875252#3 4338448#0 48665005 115952095#0 -546225667#1 -884727976#2 -55602323#6 -55602323#1 -55602323#0 -55296249#2 -4644987#1 2527#0"/>
    </vehicle>
    <vehicle id="44" depart="44.00">
        <route edges="-2955307#1 -3026118#5 3025859#6 3025859#8 133875261#0 133875262#0 133875260#0 48586818 984881213 54401061 54401064 192674702#0 279357279#1 192674701 58295596#0 -240290973#1 48586336#1 133875263 38963969#0 38963969#1 -192674402#2 -192674402#1 -959553052#4 -959553052#2 -34784840#1 39183706 192668650#2"/>
    </vehicle>
    <vehicle id="45" depart="45.00">
        <route edges="-50600070#4 -3024958#0 115353253#1 683648843 683648842#0 683648842#1 3024957 175773133 3024962 48207559 52030084#0 2765 52573118#0 2755#0 52573119 -55290812#1 -2756#1 2757#0 2757#1 1025513686#0 1025513686#1 188924487#0 209#0 55290798#0 210#1 30992002 -3120967#1 8769305 32751327 3086252#0 3086251 3086246#0"/>
    </vehicle>
    <vehicle id="46" depart="46.00">
        <route edges="133875256#0 133875255 133875259#0 133875244#0 133875232#0 3381569#0 133875226#0 133875226#1 133875249#0"/>
    </vehicle>
    <vehicle id="47" depart="47.00">
        <route edges="-212#2 192668649#1 192668647 959553052#0 959553052#3 192674402#0 192674402#2 38964007#0 38963953#2 -38963953#2 -38963953#1 133875172 133875174"/>
    </vehicle>
    <vehicle id="48" depart="48.00">
        <route edges="gneE51 -gneE52 -133875245#3 -133875245#2 -133875236#3 -133875236#1 -133875229 -180869463#1 -133875249#2 -133875226#2 -133875226#0 -3381569#3 94820#0 133875252#0 133875252#1 133875252#3 4338448#0 48665005 115952095#0 -546225667#1 -884727976#2 -8769288#1 -167257#1 3120967#0 773250139#1 331545472#2 3086259#0 3086261 3091989#1 39340468#0 39340468#1 4271799#1"/>
    </vehicle>
    <vehicle id="49" depart="49.00">
        <route edges="-gneE25 404611919#0 gneE51 -gneE52 -133875245#3 -133875245#2 -133875236#3 -133875236#1 -133875229 -180869463#1 -133875249#2 -133875226#2 -133875226#0 -3381569#3 94820#0 133875252#0 133875252#1 133875252#3 4338448#0 48665005 115952095#0 -546225667#1 -884727976#2 -8769288#1 -167257#1 3120967#0 773250139#1 331545472#2 3086259#0 3086261 3091989#1 -2524 30991997#1 1040747475 55296264#1 55290812#0 48207221 2742 52573120 52030081"/>
    </vehicle>
    <vehicle id="50" depart="50.00">
        <route edges="-133875226#0 -3381569#3 94820#0 133875252#0 133875252#1 133875252#3 4338448#0 48665005 115952095#0 -546225667#1 -884727976#2 -8769288#1 -167257#1 3120967#0 773250139#1 331545472#2 3086259#0 3086261 3091989#1 -2524 30991997#1 1040747475 55296264#1 55290812#0 48207221 2742 52573120 55290813#0 -4279571 -175773133 683583893 115353253#0 115353253#1 48206750 -54401052#2 -54401052#1 -54401052#0 -54649790 373843895 48586336#1 133875263 4893261 133875264 38963953#0"/>
    </vehicle>
    <vehicle id="51" depart="51.00">
        <route edges="164650608 141841564#2 141841564#3 141841564#7 39654987#0 133875252#3 4338448#0 48665005 115952095#0 -546225667#1 -884727976#2 -55602323#6 -55602323#1 -55602323#0 -55296249#2 -4644987#1 2527#0 4236439#0 4236439#1 3441067#0 -203240967#2 -198245314#0 -26312537#4 26312537#3 2743#0"/>
    </vehicle>
    <vehicle id="52" depart="52.00">
        <route edges="-444272568#2 4825792 164650608 141841564#2 141841564#3 141841564#7 39654987#0 133875252#3 4338448#0 48665005 115952095#0 -546225667#1 -884727976#2 -8769288#1 -167257#1 8769305 -4231711"/>
    </vehicle>
    <vehicle id="53" depart="53.00">
        <route edges="192674402#2 133875178#0 133875177 133875176 133875182#3 -48586336#2 240290973#0 -58295596#1 -192674701 -279357279#1 326284091 984881212 54401067 54401075 48586825"/>
    </vehicle>
    <vehicle id="54" depart="54.00">
        <route edges="-167257#1 3120967#0 773250139#1 331545472#2 3086259#0 3086261 3091989#1 39340468#0 39340468#1 4271799#1 8769450"/>
    </vehicle>
    <vehicle id="55" depart="55.00">
        <route edges="54649790 54401052#0 54401052#1 54401052#2 414017617 683648842#0 683648842#1 3024957 175773133 3024962 48207559 52030084#0 2765 52573118#0 2755#0 52573119 -55290812#1 -2756#1 2757#0 2757#1 1025513686#0 1025513686#1 188924487#0 209#0 55290798#0 210#1 30992002 -3120967#1 8769305 309842640#0 39352131#0 39352131#2 39352131#3 837572187#0 837572187#1 837573373#0 837573373#2 837573373#4"/>
    </vehicle>
    <vehicle id="56" depart="56.00">
        <route edges="-4231695#2 55602323#3 -8769288#1 -167257#1 3120967#0 773250139#1 331545472#2 -210#1 -55290798#2 -209#3 -3292445#8 -3292445#2 gneE12 gneE13 3292444#0.4 3292451#0"/>
    </vehicle>
    <vehicle id="57" depart="57.00">
        <route edges="683648842#1 683648844 115353253#0 115353253#1 48206750 -54401052#2"/>
    </vehicle>
    <vehicle id="58" depart="58.00">
        <route edges="414017617 683648842#0 683648842#1 3024957 175773133 3024962 48207559 52030084#0 2765 52573118#0 2755#0 52573119 -55290812#1 -2756#1 2757#0 2757#1 1025513686#0 1025513686#1 188924487#0 209#0 55290798#0 210#1 30992002 -3120967#1 8769305 309842640#0"/>
    </vehicle>
    <vehicle id="59" depart="59.00">
        <route edges="-3086247 -39352131#2 3086250 4321650"/>
    </vehicle>
    <vehicle id="60" depart="60.00">
        <route edges="4227221 2527#0 4236439#0 4236439#1 3441067#0 -203240967#2 -198245314#0 -26312537#4 26312537#3 2743#0 2743#2"/>
    </vehicle>
    <vehicle id="61" depart="61.00">
        <route edges="4236439#0 4236439#1 3441067#0 -203240967#2 -198245314#0 3609801#1 -39348547#2 50842685#0"/>
    </vehicle>
    <vehicle id="62" depart="62.00">
        <route edges="-133875223#0 -4357619 4340722#0 133875244#0 4338446#0 133875252#0 7995397#0 -141841564#11 -141841564#6 -141841564#2 -141841564#1 35391036#0 -444272568#0 -837573373#3 -837573373#1"/>
    </vehicle>
    <vehicle id="63" depart="63.00">
        <route edges="-133875245#2 -133875236#3 -133875236#1 746445108 746445107"/>
    </vehicle>
    <vehicle id="64" depart="64.00">
        <route edges="2523#0 30991997#1 1040747475 55296264#1 55290812#0 48207221 2742"/>
    </vehicle>
    <vehicle id="65" depart="65.00">
        <route edges="-55290798#2 -209#3"/>
    </vehicle>
    <vehicle id="66" depart="66.00">
        <route edges="55290798#0 210#1 30992002 -3120967#1 8769305 309842640#0 39352131#0 39352131#2 39352131#3 837572187#0 837572187#1 837573373#0"/>
    </vehicle>
    <vehicle id="67" depart="67.00">
        <route edges="192671933#0 3025839#0 133875262#0 133875260#0 48586818 984881213 54401061 54401064 192674702#0 279357279#1 192674701 58295596#0 -240290973#1 48586336#1 133875263 38963969#0 38963969#1"/>
    </vehicle>
    <vehicle id="68" depart="68.00">
        <route edges="-2527#2 4644987#0 55296249#0 55602323#0 55602323#1 55602323#3 -8769288#1 -167257#1 3120967#0 773250139#1 331545472#2 3086259#0 3086261 3091989#1 39340468#0 4271800"/>
    </vehicle>
    <vehicle id="69" depart="69.00">
        <route edges="-55602323#0 -55296249#2 -4644987#1 2527#0 4236439#0 4236439#1 3441067#0 55296262 4479201#0 4346053 3027099#0 505404870#0 351684045#0 133875181#0 351684503 3025859#0 3025859#5"/>
    </vehicle>
    <vehicle id="70" depart="70.00">
        <route edges="-959553052#4 -959553052#2 -34784840#1 39183706 192668650#2 192668650#3 gneE13 3292444#0.4 899645883#2 899645883#5 74552388#2 7985210#0 7985210#1 32751328"/>
    </vehicle>
    <vehicle id="71" depart="71.00">
        <route edges="-4357619 4340722#0 133875244#0 4338446#0 133875252#0 133875252#1 133875252#3 4338448#0 48665005 115952095#0 -546225667#1 -884727976#2 -8769288#1 -167257#1 3120967#0 773250139#1 331545472#2 3086259#0 3086261 3091989#1 -2524 30991997#1 1040747475 55296264#1 55290812#0 48207221 2742 52573120 55290813#0 -4279571 -175773133 683583893 115353253#0 115353253#1 48206750"/>
    </vehicle>
    <vehicle id="72" depart="72.00">
        <route edges="133875252#0 133875252#1 133875252#3 4338448#0 48665005 115952095#0 -546225667#1 -884727976#2 -8769288#1 -167257#1 8769305 309842640#0 39352131#0"/>
    </vehicle>
    <vehicle id="73" depart="73.00">
        <route edges="-2955307#1 -3026118#5 -3025859#5 -3025859#3 -351684503 -351685326 -55290805 34243632#0 133875195#0 133875195#3 55290800 55290807 55290799 984881209 37777462 55290809#0 3441738#0 55290801 4236439#0 39333603"/>
    </vehicle>
    <vehicle id="74" depart="74.00">
        <route edges="55290801 -2527#2 4644987#0 55296249#0 55602323#0 55602323#1 55602323#3 884727976#0 546225667#0 115952099#2 -30906#3 38619223#0 133875255 133875259#0 133875244#0 133875232#0 3381569#0 133875226#0 133875226#1 133875249#0 180869463#0 133875229"/>
    </vehicle>
    <vehicle id="75" depart="75.00">
        <route edges="gneE51 -gneE52 -133875245#3 -133875245#2 -133875236#3 -133875236#1 -133875229 -180869463#1 -133875249#2 -133875226#2 -133875226#0 -3381569#3 94820#0 133875252#0 133875252#1 133875252#3 4338448#0 48665005 115952095#0 -546225667#1 -884727976#2 -8769288#1 -167257#1 8769305 32751327 309843878"/>
    </vehicle>
    <vehicle id="76" depart="76.00">
        <route edges="-48586336#2 240290973#0 -58295596#1 -192674701 -279357279#1 326284091 984881212 54401067 54401075 48586825 -133875260#3 -133875262#1 -133875261#1 -3025859#8 -3025859#7 -3025859#5 -3025859#3 -351684503 -351685326 -55290805 34243632#0 133875195#0 133875195#3 55290800 55290807 55290799 984881209 37777462 55290809#0 3441738#0 55290801 -2527#2 -4227221 3058212#0 3058212#3 2529#1"/>
    </vehicle>
    <vehicle id="77" depart="77.00">
        <route edges="3025482#2 959553052#3 192674402#0 192674402#2 133875178#0 133875177 133875176 133875182#3 -48586336#2 240290973#0 -58295596#1 -192674701 -279357279#1 326284091 984881212 54401067 54401075 48586825 -133875260#3 -133875262#1 -133875261#1 -3025859#8 -3025859#7 -3025859#5 -3025859#3 -351684503 -351685326 -55290805 34243632#0 133875195#0 133875195#3 55290800 55290807 55290799 -133875223#19 -133875223#16 -133875223#10 -133875223#4 -133875223#1 -133875223#0 -4357619 4340722#0 133875244#0 4338446#0 133875252#0 7995397#0 -141841564#11 -5191097#3 403281810#0 403281808 -403285759#0"/>
    </vehicle>
    <vehicle id="78" depart="78.00">
        <route edges="-8769450 4045612#0 4045612#1 3091989#1 -2524 30991997#1 1040747475 55296264#1 55290812#0 48207221 2742 52573120 55290813#0 -4279571 3024966#0"/>
    </vehicle>
    <vehicle id="79" depart="79.00">
        <route edges="26312537#3 3609801#1 -39348547#2 39348546#0 52573118#0 2755#0 52573119 -55290812#1 -2756#1 2757#0 2757#1 1025513686#0 1025513686#1 188924487#0 209#0 55290798#0 210#1 30992002 -3120967#1 8769305 32751327 3086252#0 3086251 3086245#1 3086248#0"/>
    </vehicle>
    <vehicle id="80" depart="80.00">
        <route edges="-403281810#1 5191097#2 141841564#7 39654987#0 133875252#3 4338448#0 48665005 115952095#0 -546225667#1 -884727976#2 -55602323#6 -55602323#1 -55602323#0 -55296249#2 -4644987#1 2527#0 4236439#0 4236439#1 3441067#0 55296262"/>
    </vehicle>
    <vehicle id="81" depart="81.00">
        <route edges="54401052#1 54401052#2 414017617 683648842#0 683648842#1 3024957 175773133 3024962 48207559 52030084#0 38964070#0 39348547#1 -3609801#3 2743#0 -2743#1 -26312537#4 -26312537#2"/>
    </vehicle>
    <vehicle id="82" depart="82.00">
        <route edges="57962409 55602323#3 -8769288#1 -167257#1 3120967#0 773250139#1 331545472#2 -210#1 -55290798#2 -209#3 -3292445#8"/>
    </vehicle>
    <vehicle id="83" depart="83.00">
        <route edges="3086250 4321650 167283#0 -55602323#6 -55602323#1 -55602323#0 -55296249#2 -4644987#1 2527#0 4236439#0 4236439#1 3441067#0 55296262 4479201#0 4346053 3027099#0 505404870#0 351684045#0 133875181#0 351684503 3025859#0 -3026116#5"/>
    </vehicle>
    <vehicle id="84" depart="84.00">
        <route edges="-837572187#0 -39352131#5 -39352131#2 -39352131#1 -3086257#1 -3086258 331545472#2 3086259#0 3086261 3091989#1 -2524 30991997#1 1040747475 55296264#1 55290812#0 48207221 2742 52573120 55290813#0 -4279571 -175773133 683583893 115353253#0 3024958#0 3024958#1"/>
    </vehicle>
    <vehicle id="85" depart="85.00">
        <route edges="192668650#3 gneE13 3292444#0.4 899645883#2 899645883#5 74552388#2 7985210#0 7985210#1 32751328 1025513686#0 1025513686#1 188924487#0 209#0 55290798#0 210#1 30992002 -3120967#1 167257#0 167257#2 -55602323#6 4231695#0"/>
    </vehicle>
    <vehicle id="86" depart="86.00">
        <route edges="133875223#6 133875223#11 133875223#17 984881209 55290796 4346053 3027099#0 505404870#0 351684045#0"/>
    </vehicle>
    <vehicle id="87" depart="87.00">
        <route edges="-2960931#0 326284103 54401064 984881214 984881212 54401067 54401075 48586825 -133875260#3 -133875262#1 -133875261#1 -3025859#8 -3025859#7 -3025859#5 -3025859#3 -351684503 -351685326 -55290805 34243632#0 133875195#0 133875195#3 55290800 55290807 55290799 -133875223#19 -133875223#16 -133875223#10 -133875223#4 -133875223#1 -133875223#0 -4357619 4340722#0 133875244#0 4338446#0 133875252#0 133875252#1 133875252#3 133875256#0"/>
    </vehicle>
    <vehicle id="88" depart="88.00">
        <route edges="133875252#1 133875252#3 4338448#0 48665005 115952095#0 -546225667#1 -884727976#2 -8769288#1 -167257#1 3120967#0 773250139#1 331545472#2 -210#1 -55290798#2 -209#3 -3292445#8 -3292445#2 gneE12 -192668650#4 -192668650#2 -192668650#1 192668649#1 192668647"/>
    </vehicle>
    <vehicle id="89" depart="89.00">
        <route edges="-3086257#1 -3086258 331545472#2 3086259#0 3086261 3091989#1 -2524 30991997#1 1040747475 2757#1 1025513686#0 1025513686#1 2761 48173166#0 -899656225#3 3292446"/>
    </vehicle>
    <vehicle id="90" depart="90.00">
        <route edges="gneE43 gneE45 gneE28 -444272568#2 4825792 164650608 141841564#2 141841564#3 141841564#7 39654987#0 133875252#3 4338448#0 48665005 115952095#0 -546225667#1 -884727976#2 -8769288#1 -167257#1 3120967#0 773250139#1 331545472#2 3086259#0 3086261 3091989#1 -2524 30991997#1 1040747475 55296264#1 55290812#0 48207221 2742 52573120 55290813#0 -4279571 -175773133 683583893 115353253#0 115353253#1 48206750 -54401052#2 -54401052#1"/>
    </vehicle>
    <vehicle id="91" depart="91.00">
        <route edges="-133875223#1 -133875223#0 -4357619 4340722#0 133875244#0 4338446#0 133875252#0 133875252#1 133875252#3 4338448#0 48665005 115952095#0 -546225667#1 -884727976#2 -8769288#1 -167257#1 3120967#0 773250139#1 331545472#2 3086259#0 3086261 3091989#1 -2524 30991997#1 1040747475 2757#1 1025513686#0 1025513686#1 2761 48173166#0 -899656225#3"/>
    </vehicle>
    <vehicle id="92" depart="92.00">
        <route edges="54401052#2 414017617 683648842#0 683648842#1 3024957 175773133 3024962 48207559 52030084#0 38964070#0 39348547#1 -3609801#3 2748#0 -37777243#4 37777243#0 198245314#1 55296262 197960551 55290809#0 3441738#0 55290801 -2527#2 4644987#0 55296249#0 55602323#0 55602323#1 4231695#0"/>
    </vehicle>
    <vehicle id="93" depart="93.00">
        <route edges="-34784840#1 39183706 192668650#2 192668650#3 gneE13 3292444#0.4 899645883#2 899645883#5 74552388#2 7985210#0 7985210#1 32751328 1025513686#0 1025513686#1 188924487#0 209#0 55290798#0 210#1 30992002 -3120967#1 167257#0 167257#2 -55602323#6 -55602323#1 -55602323#0"/>
    </vehicle>
    <vehicle id="94" depart="94.00">
        <route edges="133875252#0 7995397#0 -141841564#11 -5191097#3 -5191097#1"/>
    </vehicle>
    <vehicle id="95" depart="95.00">
        <route edges="-4231695#2 55602323#3 -8769288#1 -167257#1 3120967#0 773250139#1 331545472#2 3086259#0 3086261 3091989#1 -2524 30991997#1 1040747475 55296264#1 55290812#0 48207221 2742 52573120 55290813#0 -4279571 -175773133 683583893 115353253#0 115353253#1 683648843 683648842#0 683648842#1"/>
    </vehicle>
    <vehicle id="96" depart="96.00">
        <route edges="141841564#3 141841564#7 39654987#0 133875252#3 4338448#0 48665005 115952095#0 -546225667#1 -884727976#2 -8769288#1 -167257#1 3120967#0 773250139#1 331545472#2 3086259#0 3086261 3091989#1 -2524 30991997#1 1040747475 55296264#1 55290812#0 48207221 2742 52573120 52030081 52030084#0"/>
    </vehicle>
    <vehicle id="97" depart="97.00">
        <route edges="2960931#1 -54649790 373843895 48586336#1 133875263 38963969#0 38963969#1 -192674402#2"/>
    </vehicle>
    <vehicle id="98" depart="98.00">
        <route edges="gneE53 -gneE52 -133875245#3 -133875245#2 -133875236#3 -133875236#1 746445108 746445107"/>
    </vehicle>
    <vehicle id="99" depart="99.00">
        <route edges="-192668650#4 -192668650#2 -192668650#1 192668649#1 192668647 959553052#0 -3025482#4 -3025482#1 -3024958#0 115353253#1 683648843 683648842#0 683648842#1 683648844"/>
    </vehicle>
    <vehicle id="100" depart="100.00">
        <route edges="52030081 52030084#0 2765 52573118#0 2755#0 52573119 -55290812#1 -2756#1 2757#0 2757#1 1025513686#0 1025513686#1 188924487#0 209#0 55290798#0 210#1 30992002 -3120967#1 8769305"/>
    </vehicle>
    <vehicle id="101" depart="101.00">
        <route edges="198245314#1 55296262 197960551 55290809#0 3441738#0 55290801 -2527#2 4644987#0 55296249#0 55602323#0 55602323#1 55602323#3 -8769288#1 -167257#1 8769305 309842640#0 39352131#0 39352131#2"/>
    </vehicle>
    <vehicle id="102" depart="102.00">
        <route edges="-133875223#1 -133875223#0 -4357619 4340722#0 133875244#0 4338446#0 133875252#0 133875252#1 133875252#3 4338448#0 48665005 115952095#0 -546225667#1 -884727976#2 -8769288#1 -167257#1 3120967#0 773250139#1 331545472#2 -210#1 -55290798#2 -209#3"/>
    </vehicle>
    <vehicle id="103" depart="103.00">
        <route edges="133875177 133875176 133875182#3 -48586336#2 240290973#0 -58295596#1 -192674701 -279357279#1 326284091 984881212 54401067 54401075 48586825 -133875260#3 -133875262#1 -133875261#1 -3025859#8 -3025859#7 -3025859#5 -3025859#3 -351684503 -351685326 -55290805 34243632#0 133875195#0 133875195#3 55290800 55290807 55290799 -133875223#19 -133875223#16 -133875223#10 -133875223#4 -133875223#1 -133875223#0 -4357619 4340722#0 133875244#0 4338446#0 133875252#0 7995397#0 -141841564#11 -141841564#6 -141841564#2 -141841564#1 35391036#0 444272568#1 -gneE28 gneE33"/>
    </vehicle>
    <vehicle id="104" depart="104.00">