<?xml version="1.0" encoding="UTF-8"?>
<!-- generated on 2022-05-08 15:24:23.917674 by $Id$ UNKNOWN
  options: -r routes/basicRoutes.rou.xml -d data/edgeData.xml -o routes/generalRoutes.rou.xml <doubleminus>weighted -u generalDis <doubleminus>optimize full
-->
<routes xmlns:xsi="http://www.w3.org/2001/XMLSchema-instance" xsi:noNamespaceSchemaLocation="http://sumo.dlr.de/xsd/routes_file.xsd">
<!-- begin="0.0" end="3971.0" -->
    <routeDistribution id="generalDis">
        <route id="0" edges="-133875223#0 -4357619 4340722#0 133875244#0 4338446#0 133875252#0 133875252#3 4338448#0 48665005 115952095#0 -546225667#1 -8769288#1 3120967#0 773250139#1 331545472#2 -210#1 -55290798#2 -209#3 -3292445#8 -3292445#2 gneE109" probability="1"/>
        <route id="1" edges="-133875223#0 -4357619 4340722#0 133875244#0 4338446#0 133875252#0 133875252#3 4338448#0 48665005 115952095#0 -546225667#1 -8769288#1 3120967#0 773250139#1 331545472#2 -210#1 -55290798#2 -209#3 -3292445#8 -3292445#2 gneE109 -192668650#4 -192668650#2" probability="1"/>
        <route id="2" edges="-133875223#0 -4357619 4340722#0 133875244#0 4338446#0 133875252#0 133875252#3 4338448#0 48665005 115952095#0 -546225667#1 -8769288#1 3120967#0 773250139#1 331545472#2 3086259#0 3086261 3091989#1 39340468#0 39340468#1 4271799#1" probability="1"/>
        <route id="3" edges="-133875223#0 -4357619 4340722#0 133875244#0 4338446#0 133875252#0 133875252#3 4338448#0 48665005 115952095#0 -546225667#1 -8769288#1 8769305" probability="1"/>
        <route id="4" edges="-133875223#0 -4357619 4340722#0 133875244#0 4338446#0 133875252#0 133875252#3 4338448#0 48665005 115952095#0 -546225667#1 -8769288#1 8769305 309842640#0 39352131#0 39352131#2 39352131#3 837572187#0 3600469#0" probability="1"/>
        <route id="5" edges="-133875223#0 -4357619 4340722#0 133875244#0 4338446#0 133875252#0 133875252#3 4338448#0 48665005 115952095#0 -546225667#1 -8769288#1 8769305 309842640#0 39352131#0 39352131#2 39352131#3 837572187#0 837572187#1" probability="1"/>
        <route id="6" edges="-133875223#0 -4357619 4340722#0 133875244#0 4338446#0 133875252#0 133875252#3 4338448#0 48665005 115952095#0 -546225667#1 -8769288#1 8769305 32751327 3086252#0 3086251 3086245#1" probability="2"/>
        <route id="7" edges="-133875223#1 -133875223#0 -4357619 4340722#0 133875244#0 133875232#0 3381569#0 133875226#0" probability="1"/>
        <route id="8" edges="-133875223#1 -133875223#0 -4357619 4340722#0 133875244#0 4338446#0 133875252#0 133875252#3 4338448#0 48665005 115952095#0 -546225667#1" probability="1"/>
        <route id="9" edges="-133875223#1 -133875223#0 -4357619 4340722#0 133875244#0 4338446#0 133875252#0 133875252#3 4338448#0 48665005 115952095#0 -546225667#1 -8769288#1 3120967#0 773250139#1 331545472#2 3086259#0 3086261 3091989#1" probability="1"/>
        <route id="10" edges="-133875223#1 -133875223#0 -4357619 4340722#0 133875244#0 4338446#0 133875252#0 133875252#3 4338448#0 48665005 115952095#0 -546225667#1 -8769288#1 3120967#0 773250139#1 331545472#2 3086259#0 3086261 3091989#1 -2524 30991997#1 1040747475 2757#0 2757#1 1025513686#0 1025513686#1" probability="1"/>
        <route id="11" edges="-133875223#1 -133875223#0 -4357619 4340722#0 133875244#0 4338446#0 133875252#0 133875252#3 4338448#0 48665005 115952095#0 -546225667#1 -8769288#1 3120967#0 773250139#1 331545472#2 3086259#0 3086261 3091989#1 -2524 30991997#1 1040747475 2757#0 2757#1 1025513686#0 1025513686#1 2761 48173166#0 -899656225#3 3292446" probability="1"/>
        <route id="12" edges="-133875223#16 -133875223#10" probability="1"/>
        <route id="13" edges="-133875223#16 -133875223#10 gneE81 -133875223#4 -133875223#1 -133875223#0 -4357619 4340722#0 133875244#0 133875232#0" probability="1"/>
        <route id="14" edges="-133875223#16 -133875223#10 gneE81 -133875223#4 -133875223#1 -133875223#0 -4357619 4340722#0 133875244#0 133875232#0 3381569#0 133875226#0 133875226#1 133875249#0 180869463#0 133875229 133875236#0 133875236#2 133875245#0 133875245#3 gneE52 gneE52.55" probability="1"/>
        <route id="15" edges="-133875223#19 -133875223#16 -133875223#10 gneE81 -133875223#4 -133875223#1 -133875223#0 -4357619 4340722#0 133875244#0 133875232#0 3381569#0 133875226#0 133875226#1 133875249#0" probability="1"/>
        <route id="16" edges="-133875223#19 -133875223#16 -133875223#10 gneE81 -133875223#4 -133875223#1 -133875223#0 -4357619 4340722#0 133875244#0 4338446#0 133875252#0 gneE97 -141841564#11 -5191097#3 403281810#0" probability="1"/>
        <route id="17" edges="-133875223#4 -133875223#1 -133875223#0 -4357619 4340722#0 133875244#0 133875232#0 3381569#0 133875226#0" probability="3"/>
        <route id="18" edges="-133875223#4 -133875223#1 -133875223#0 -4357619 4340722#0 133875244#0 4338446#0 133875252#0 133875252#3 4338448#0 48665005 115952095#0 -546225667#1 -8769288#1 3120967#0 773250139#1 331545472#2 -210#1 -55290798#2 -209#3 -3292445#8 -3292445#2 gneE109 gneE107" probability="4"/>
        <route id="19" edges="-133875223#4 -133875223#1 -133875223#0 -4357619 4340722#0 133875244#0 4338446#0 133875252#0 133875252#3 4338448#0 48665005 115952095#0 -546225667#1 -8769288#1 3120967#0 773250139#1 331545472#2 3086259#0 3086261 3091989#1 -2524 30991997#1 1040747475 2757#0 2757#1 1025513686#0 1025513686#1 2761 48173166#0" probability="2"/>
        <route id="20" edges="-133875223#4 -133875223#1 -133875223#0 -4357619 4340722#0 133875244#0 4338446#0 133875252#0 133875252#3 4338448#0 48665005 115952095#0 -546225667#1 -8769288#1 8769305 309842640#0 39352131#0 39352131#2 39352131#3 837572187#0 837572187#1 837573373#0 837573373#2" probability="3"/>
        <route id="21" edges="-133875223#4 -133875223#1 -133875223#0 -4357619 4340722#0 133875244#0 4338446#0 133875252#0 133875252#3 4338448#0 48665005 115952095#0 -546225667#1 -8769288#1 8769305 32751327 3086252#0 4321650" probability="3"/>
        <route id="25" edges="-133875226#0 -3381569#3 94820#0 133875252#0 133875252#3 133875256#0 133875255 4338449#0 4357619 133875223#0 133875223#1 133875223#3 gneE82 133875223#6 133875223#11 133875223#17 984881209 37777462 55290809#0 3441738#0 55290801 4236439#0 4236439#1 3441067#0 -203240967#2 -198245314#0 3609801#1 -39348547#2" probability="1"/>
        <route id="33" edges="-133875226#0 -3381569#3 94820#0 133875252#0 133875252#3 4338448#0 48665005 115952095#0 -546225667#1 -8769288#1 3120967#0 773250139#1 331545472#2 -210#1 -55290798#2 -209#3 -3292445#8 -3292445#2 gneE109 -192668650#4 -192668650#2 -192668650#1 192668649#1 192668647 -3024965#8 -3024965#2" probability="1"/>
        <route id="35" edges="-133875226#0 -3381569#3 94820#0 133875252#0 133875252#3 4338448#0 48665005 115952095#0 -546225667#1 -8769288#1 3120967#0 773250139#1 331545472#2 3086259#0 3086261 3091989#1 -2524 30991997#1 1040747475 2757#0 2757#1 1025513686#0 1025513686#1 2761" probability="1"/>
        <route id="38" edges="-133875226#0 -3381569#3 94820#0 133875252#0 133875252#3 4338448#0 48665005 115952095#0 -546225667#1 -8769288#1 3120967#0 773250139#1 331545472#2 30992002 3126772#0 3126773 39333941#2" probability="1"/>
        <route id="41" edges="-133875226#0 -3381569#3 94820#0 133875252#0 133875252#3 4338448#0 48665005 115952095#0 3441624#0 167160#0 -55296249#2" probability="1"/>
        <route id="42" edges="-133875226#0 -3381569#3 94820#0 133875252#0 133875252#3 4338448#0 48665005 115952095#0 3441624#0 167160#0 gneE91 4231695#0 4231695#3 4231696#1 -4231696#1 -416688557" probability="1"/>
        <route id="43" edges="-133875226#2 -133875226#0 -3381569#3 94820#0 133875252#0 133875252#3 133875256#0 133875255 4338449#0 4357619 133875223#0 133875223#1 133875223#3 gneE82 133875223#6 133875223#11 133875223#17 984881209 37777462 55290809#0 3441738#0 55290801" probability="1"/>
        <route id="44" edges="-133875226#2 -133875226#0 -3381569#3 94820#0 133875252#0 133875252#3 133875256#0 133875255 4338449#0 4357619 133875223#0 133875223#1 133875223#3 gneE82 133875223#6 133875223#11 133875223#17 984881209 55290796 4346053" probability="3"/>
        <route id="45" edges="-133875226#2 -133875226#0 -3381569#3 94820#0 133875252#0 133875252#3 133875256#0 133875255 4338449#0 4357619 133875223#0 133875223#1 133875223#3 gneE82 133875223#6 133875223#11 133875223#17 984881209 55290796 4346053 3027099#0 505404870#0 351684045#0" probability="2"/>
        <route id="46" edges="-133875226#2 -133875226#0 -3381569#3 94820#0 133875252#0 133875252#3 133875256#0 133875255 4338449#0 4357619 133875223#0 133875223#1 133875223#3 gneE82 133875223#6 133875223#11 133875223#17 984881209 55290796 4346053 3027099#0 505404870#0 351684045#0 133875181#0 351684503 3025859#0 3025859#5 3026118#0 3026118#6 2955307#2" probability="1"/>
        <route id="47" edges="-133875226#2 -133875226#0 -3381569#3 94820#0 133875252#0 133875252#3 4338448#0 48665005 115952095#0 -546225667#1 -8769288#1 3120967#0 773250139#1 331545472#2 -210#1 -55290798#2 -209#3 -3292445#8 -3292445#2 gneE109 -192668650#4 -192668650#2 -192668650#1 192668649#1 192668647" probability="2"/>
        <route id="48" edges="-133875226#2 -133875226#0 -3381569#3 94820#0 133875252#0 133875252#3 4338448#0 48665005 115952095#0 -546225667#1 -8769288#1 3120967#0 773250139#1 331545472#2 -210#1 -55290798#2 -209#3 -3292445#8 -3292445#2 gneE109 -192668650#4 -192668650#2 -192668650#1 192668649#1 192668647 -3024965#8" probability="3"/>
        <route id="49" edges="-133875226#2 -133875226#0 -3381569#3 94820#0 133875252#0 133875252#3 4338448#0 48665005 115952095#0 -546225667#1 -8769288#1 3120967#0 773250139#1 331545472#2 3086259#0 3086261 3091989#1 -2524" probability="5"/>
        <route id="50" edges="-133875226#2 -133875226#0 -3381569#3 94820#0 133875252#0 133875252#3 4338448#0 48665005 115952095#0 -546225667#1 -8769288#1 3120967#0 773250139#1 331545472#2 3086259#0 3086261 3091989#1 -2524 30991997#1 1040747475 2757#0 2757#1 1025513686#0 1025513686#1 2761 48173166#0 -899656225#3 -74552388#1" probability="2"/>
        <route id="51" edges="-133875226#2 -133875226#0 -3381569#3 94820#0 133875252#0 133875252#3 4338448#0 48665005 115952095#0 -546225667#1 -8769288#1 8769305 309842640#0 39352131#0 39352131#2" probability="2"/>
        <route id="52" edges="-133875226#2 -133875226#0 -3381569#3 94820#0 133875252#0 133875252#3 4338448#0 48665005 115952095#0 -546225667#1 -8769288#1 8769305 32751327 3086252#0 4321650 167283#0 167283#0.164 884727976#0 gneE92" probability="1"/>
        <route id="53" edges="-133875229 -180869463#1 -133875249#2 -133875226#2 -133875226#0 -3381569#3 94820#0" probability="1"/>
        <route id="54" edges="-133875229 -180869463#1 -133875249#2 -133875226#2 -133875226#0 -3381569#3 94820#0 133875252#0 133875252#3 133875256#0 133875255 4338449#0 4357619 133875223#0 133875223#1 133875223#3 gneE82 133875223#6 133875223#11 133875223#17 984881209 37777462 55290809#0 3441738#0 55290801 4236439#0 39333603" probability="1"/>
        <route id="55" edges="-133875229 -180869463#1 -133875249#2 -133875226#2 -133875226#0 -3381569#3 94820#0 133875252#0 133875252#3 133875256#0 133875255 4338449#0 4357619 133875223#0 133875223#1 133875223#3 gneE82 133875223#6 133875223#11 133875223#17 984881209 37777462 55290809#0 3441738#0 55290801 4236439#0 4236439#1 3441067#0 -203240967#2 -198245314#0 2743#0" probability="1"/>
        <route id="56" edges="-133875229 -180869463#1 -133875249#2 -133875226#2 -133875226#0 -3381569#3 94820#0 133875252#0 133875252#3 133875256#0 133875255 4338449#0 4357619 133875223#0 133875223#1 133875223#3 gneE82 133875223#6 133875223#11 133875223#17 984881209 37777462 55290809#0 3441738#0 55290801 4236439#0 4236439#1 3441067#0 -203240967#2 -37777243#4" probability="1"/>
        <route id="57" edges="-133875229 -180869463#1 -133875249#2 -133875226#2 -133875226#0 -3381569#3 94820#0 133875252#0 133875252#3 133875256#0 133875255 4338449#0 4357619 133875223#0 133875223#1 133875223#3 gneE82 133875223#6 133875223#11 133875223#17 984881209 55290796 4346053 3027099#0 505404870#0 351684045#0 133875181#0 351684503 3025859#0 3025859#5 3025859#6 3025859#8 133875261#0 133875262#0 133875260#0 48586818 gneE74 54401064 984881214 984881212 48586824 2960823" probability="1"/>
        <route id="58" edges="-133875229 -180869463#1 -133875249#2 -133875226#2 -133875226#0 -3381569#3 94820#0 133875252#0 133875252#3 133875256#0 133875255 4338449#0 4357619 133875223#0 133875223#1 133875223#3 gneE82 133875223#6 133875223#11 133875223#17 984881209 55290796 4346053 3027099#0 505404870#0 351684045#0 133875181#0 351684503 3025859#0 3025859#5 3025859#6 3025859#8 133875261#0 133875262#0 133875260#0 48586818 gneE74 gneE75 48586837 3024770 54401052#2 414017617 683648842#0" probability="1"/>
        <route id="59" edges="-133875229 -180869463#1 -133875249#2 -133875226#2 -133875226#0 -3381569#3 94820#0 133875252#0 133875252#3 4338448#0 48665005 115952095#0 -546225667#1 -8769288#1" probability="1"/>
        <route id="60" edges="-133875229 -180869463#1 -133875249#2 -133875226#2 -133875226#0 -3381569#3 94820#0 133875252#0 133875252#3 4338448#0 48665005 115952095#0 -546225667#1 -8769288#1 3120967#0 773250139#1 331545472#2" probability="1"/>
        <route id="61" edges="-133875229 -180869463#1 -133875249#2 -133875226#2 -133875226#0 -3381569#3 94820#0 133875252#0 133875252#3 4338448#0 48665005 115952095#0 -546225667#1 -8769288#1 3120967#0 773250139#1 331545472#2 -210#1 -55290798#2 -209#3 -3292445#8 -3292445#2 gneE109 -4235144#3" probability="1"/>
        <route id="62" edges="-133875229 -180869463#1 -133875249#2 -133875226#2 -133875226#0 -3381569#3 94820#0 133875252#0 133875252#3 4338448#0 48665005 115952095#0 -546225667#1 -8769288#1 3120967#0 773250139#1 331545472#2 30992002 3126772#0 3126773 39333941#2" probability="2"/>
        <route id="63" edges="-133875229 -180869463#1 -133875249#2 -133875226#2 -133875226#0 -3381569#3 94820#0 133875252#0 133875252#3 4338448#0 48665005 115952095#0 -546225667#1 -8769288#1 8769305 309842640#0 39352131#0 39352131#2 39352131#3" probability="1"/>
        <route id="64" edges="-133875229 -180869463#1 -133875249#2 -133875226#2 -133875226#0 -3381569#3 94820#0 133875252#0 133875252#3 4338448#0 48665005 115952095#0 -546225667#1 -8769288#1 8769305 32751327 3086252#0 3086251" probability="1"/>
        <route id="65" edges="-133875229 -180869463#1 -133875249#2 -133875226#2 -133875226#0 -3381569#3 94820#0 133875252#0 133875252#3 4338448#0 48665005 115952095#0 -546225667#1 -8769288#1 8769305 32751327 3086252#0 4321650" probability="1"/>
        <route id="66" edges="-133875229 -180869463#1 -133875249#2 -133875226#2 -133875226#0 -3381569#3 94820#0 133875252#0 133875252#3 4338448#0 48665005 115952095#0 3441624#0 167160#0 26753071" probability="1"/>
        <route id="67" edges="-133875229 -180869463#1 -133875249#2 -133875226#2 -133875226#0 -3381569#3 94820#0 133875252#0 133875252#3 4338448#0 48665005 115952095#0 3441624#0 167160#0 gneE91 4231695#0 4231695#3 4231696#1" probability="1"/>
        <route id="68" edges="-133875229 -180869463#1 -133875249#2 -133875226#2 -133875226#0 -3381569#3 94820#0 133875252#0 gneE97 -141841564#11 -5191097#3 403281810#0" probability="1"/>
        <route id="69" edges="-133875236#1 -133875229 -180869463#1 -133875249#2 -133875226#2 -133875226#0 -3381569#3 94820#0 133875252#0 133875252#3 133875256#0 133875255 4338449#0 4357619 133875223#0 133875223#1 133875223#3 gneE82 133875223#6 133875223#11 133875223#17 984881209 37777462 55290809#0 3441738#0 55290801" probability="2"/>
        <route id="70" edges="-133875236#1 -133875229 -180869463#1 -133875249#2 -133875226#2 -133875226#0 -3381569#3 94820#0 133875252#0 133875252#3 133875256#0 133875255 4338449#0 4357619 133875223#0 133875223#1 133875223#3 gneE82 133875223#6 133875223#11 133875223#17 984881209 37777462 55290809#0 3441738#0 55290801 4236439#0 39333603" probability="2"/>
        <route id="71" edges="-133875236#1 -133875229 -180869463#1 -133875249#2 -133875226#2 -133875226#0 -3381569#3 94820#0 133875252#0 133875252#3 133875256#0 133875255 4338449#0 4357619 133875223#0 133875223#1 133875223#3 gneE82 133875223#6 133875223#11 133875223#17 984881209 37777462 55290809#0 3441738#0 55290801 4236439#0 4236439#1 3441067#0 -203240967#2 -198245314#0 2743#0" probability="3"/>
        <route id="72" edges="-133875236#1 -133875229 -180869463#1 -133875249#2 -133875226#2 -133875226#0 -3381569#3 94820#0 133875252#0 133875252#3 133875256#0 133875255 4338449#0 4357619 133875223#0 133875223#1 133875223#3 gneE82 133875223#6 133875223#11 133875223#17 984881209 37777462 55290809#0 3441738#0 55290801 4236439#0 4236439#1 3441067#0 -203240967#2 -198245314#0 3609801#1 -39348547#2 39348546#0 52573118#0 2755#0 48207220 52573120 52030081" probability="1"/>
        <route id="73" edges="-133875236#1 -133875229 -180869463#1 -133875249#2 -133875226#2 -133875226#0 -3381569#3 94820#0 133875252#0 133875252#3 133875256#0 133875255 4338449#0 4357619 133875223#0 133875223#1 133875223#3 gneE82 133875223#6 133875223#11 133875223#17 984881209 55290796 4346053 3027099#0 505404870#0 351684045#0 133875181#0 351684503 3025859#0" probability="2"/>
        <route id="74" edges="-133875236#1 -133875229 -180869463#1 -133875249#2 -133875226#2 -133875226#0 -3381569#3 94820#0 133875252#0 133875252#3 133875256#0 133875255 4338449#0 4357619 133875223#0 133875223#1 133875223#3 gneE82 133875223#6 133875223#11 133875223#17 984881209 55290796 4346053 3027099#0 505404870#0 351684045#0 133875181#0 351684503 3025859#0 3025859#5 3025859#6 3025859#8 133875261#0 133875262#0 133875260#0 48586818 gneE74 54401064 192674702#0 279357279#1 192674701 58295596#0" probability="4"/>
        <route id="75" edges="-133875236#1 -133875229 -180869463#1 -133875249#2 -133875226#2 -133875226#0 -3381569#3 94820#0 133875252#0 133875252#3 4338448#0 48665005 115952095#0 -546225667#1 -8769288#1 3120967#0 773250139#1 331545472#2 -210#1 -55290798#2 -209#3 -3292445#8 -3292445#2 gneE109 -192668650#4 -192668650#2 -192668650#1 192668649#1 192668647 -3024965#8 3024964" probability="2"/>
        <route id="76" edges="-133875236#1 -133875229 -180869463#1 -133875249#2 -133875226#2 -133875226#0 -3381569#3 94820#0 133875252#0 133875252#3 4338448#0 48665005 115952095#0 -546225667#1 -8769288#1 3120967#0 773250139#1 331545472#2 3086259#0 3086261 3091989#1 -2524 30991997#1 1040747475 2757#0 2757#1 1025513686#0 1025513686#1 2761 48173166#0 -899656225#3 -74552388#1 3292448" probability="2"/>
        <route id="77" edges="-133875236#1 -133875229 -180869463#1 -133875249#2 -133875226#2 -133875226#0 -3381569#3 94820#0 133875252#0 133875252#3 4338448#0 48665005 115952095#0 -546225667#1 -8769288#1 3120967#0 773250139#1 331545472#2 3086259#0 3086261 3091989#1 39340468#0 39340468#1 4271799#1" probability="2"/>
        <route id="78" edges="-133875236#1 -133875229 -180869463#1 -133875249#2 -133875226#2 -133875226#0 -3381569#3 94820#0 133875252#0 133875252#3 4338448#0 48665005 115952095#0 3441624#0 167160#0 gneE91 -57962409" probability="2"/>
        <route id="79" edges="-133875236#3" probability="1"/>
        <route id="80" edges="-133875236#3 -133875236#1 -133875229 -180869463#1 -133875249#2 -133875226#2 -133875226#0 -3381569#3" probability="1"/>
        <route id="81" edges="-133875236#3 -133875236#1 -133875229 -180869463#1 -133875249#2 -133875226#2 -133875226#0 -3381569#3 94820#0 133875252#0 133875252#3 133875256#0 133875255 4338449#0" probability="1"/>
        <route id="82" edges="-133875236#3 -133875236#1 -133875229 -180869463#1 -133875249#2 -133875226#2 -133875226#0 -3381569#3 94820#0 133875252#0 133875252#3 133875256#0 133875255 4338449#0 4357619 133875223#0 133875223#1 133875223#3 gneE82 133875223#6 133875223#11 133875223#17 984881209 37777462 55290809#0 3441738#0 55290801" probability="1"/>
        <route id="83" edges="-133875236#3 -133875236#1 -133875229 -180869463#1 -133875249#2 -133875226#2 -133875226#0 -3381569#3 94820#0 133875252#0 133875252#3 133875256#0 133875255 4338449#0 4357619 133875223#0 133875223#1 133875223#3 gneE82 133875223#6 133875223#11 133875223#17 984881209 37777462 55290809#0 3441738#0 55290801 4236439#0 4236439#1 3441067#0 -203240967#2 -198245314#0 3609801#1 -39348547#2 39348546#0 52573118#0" probability="1"/>
        <route id="84" edges="-133875236#3 -133875236#1 -133875229 -180869463#1 -133875249#2 -133875226#2 -133875226#0 -3381569#3 94820#0 133875252#0 133875252#3 133875256#0 133875255 4338449#0 4357619 133875223#0 133875223#1 133875223#3 gneE82 133875223#6 133875223#11 133875223#17 984881209 55290796" probability="1"/>
        <route id="85" edges="-133875236#3 -133875236#1 -133875229 -180869463#1 -133875249#2 -133875226#2 -133875226#0 -3381569#3 94820#0 133875252#0 133875252#3 133875256#0 133875255 4338449#0 4357619 133875223#0 133875223#1 133875223#3 gneE82 133875223#6 133875223#11 133875223#17 984881209 55290796 4346053 3027099#0 505404870#0 351684045#0 133875181#0 351684503 3025859#0 3025859#5 3025859#6 3025859#8 133875261#0 133875262#0 133875260#0 48586818 gneE74 54401064 192674702#0 279357279#1 192674701 58295596#0 gneE110 3024960#0" probability="1"/>
        <route id="87" edges="-133875236#3 -133875236#1 -133875229 -180869463#1 -133875249#2 -133875226#2 -133875226#0 -3381569#3 94820#0 133875252#0 133875252#3 133875256#0 133875255 4338449#0 4357619 133875223#0 133875223#1 133875223#3 gneE82 4479202#0" probability="1"/>
        <route id="88" edges="-133875236#3 -133875236#1 -133875229 -180869463#1 -133875249#2 -133875226#2 -133875226#0 -3381569#3 94820#0 133875252#0 133875252#3 4338448#0 48665005 115952095#0" probability="1"/>
        <route id="89" edges="-133875236#3 -133875236#1 -133875229 -180869463#1 -133875249#2 -133875226#2 -133875226#0 -3381569#3 94820#0 133875252#0 133875252#3 4338448#0 48665005 115952095#0 -546225667#1 -8769288#1 3120967#0 773250139#1 331545472#2 -210#1 -55290798#2 -209#3 -3292445#8 -3292445#2 gneE109 -192668650#4 -192668650#2 -192668650#1 192668649#1 192668647 959553052#0" probability="1"/>
        <route id="90" edges="-133875236#3 -133875236#1 -133875229 -180869463#1 -133875249#2 -133875226#2 -133875226#0 -3381569#3 94820#0 133875252#0 133875252#3 4338448#0 48665005 115952095#0 -546225667#1 -8769288#1 3120967#0 773250139#1 331545472#2 -210#1 -55290798#2 -209#3 -3292445#8 -3292445#2 gneE109 -192668650#4 -192668650#2 -192668650#1 192668649#1 192668647 959553052#0 -3025482#4" probability="1"/>
        <route id="91" edges="-133875236#3 -133875236#1 -133875229 -180869463#1 -133875249#2 -133875226#2 -133875226#0 -3381569#3 94820#0 133875252#0 133875252#3 4338448#0 48665005 115952095#0 -546225667#1 -8769288#1 3120967#0 773250139#1 331545472#2 -210#1 -55290798#2 -209#3 -3292445#8 -3292445#2 gneE109 gneE107" probability="1"/>
        <route id="92" edges="-133875236#3 -133875236#1 -133875229 -180869463#1 -133875249#2 -133875226#2 -133875226#0 -3381569#3 94820#0 133875252#0 133875252#3 4338448#0 48665005 115952095#0 -546225667#1 -8769288#1 3120967#0 773250139#1 331545472#2 3086259#0 3086261 3091989#1" probability="1"/>
        <route id="93" edges="-133875236#3 -133875236#1 -133875229 -180869463#1 -133875249#2 -133875226#2 -133875226#0 -3381569#3 94820#0 133875252#0 133875252#3 4338448#0 48665005 115952095#0 -546225667#1 -8769288#1 3120967#0 773250139#1 331545472#2 3086259#0 3086261 3091989#1 39340468#0 39340468#1 4271799#1" probability="1"/>
        <route id="94" edges="-133875236#3 -133875236#1 -133875229 -180869463#1 -133875249#2 -133875226#2 -133875226#0 -3381569#3 94820#0 133875252#0 133875252#3 4338448#0 48665005 115952095#0 -546225667#1 -8769288#1 3120967#0 773250139#1 331545472#2 3086259#0 3086261 3091989#1 39340468#0 39340468#1 4271802" probability="1"/>
        <route id="95" edges="-133875236#3 -133875236#1 -133875229 -180869463#1 -133875249#2 -133875226#2 -133875226#0 -3381569#3 94820#0 133875252#0 133875252#3 4338448#0 48665005 115952095#0 -546225667#1 -8769288#1 8769305" probability="1"/>
        <route id="96" edges="-133875236#3 -133875236#1 -133875229 -180869463#1 -133875249#2 -133875226#2 -133875226#0 -3381569#3 94820#0 133875252#0 133875252#3 4338448#0 48665005 115952095#0 -546225667#1 -8769288#1 8769305 309842640#0 39352131#0 39352131#2 39352131#3" probability="1"/>
        <route id="97" edges="-133875236#3 -133875236#1 -133875229 -180869463#1 -133875249#2 -133875226#2 -133875226#0 -3381569#3 94820#0 133875252#0 133875252#3 4338448#0 48665005 115952095#0 -546225667#1 -8769288#1 8769305 32751327 3086252#0 3086251" probability="1"/>
        <route id="98" edges="-133875236#3 -133875236#1 -133875229 -180869463#1 -133875249#2 -133875226#2 -133875226#0 -3381569#3 94820#0 133875252#0 133875252#3 4338448#0 48665005 115952095#0 -546225667#1 -8769288#1 8769305 32751327 3086252#0 3086251 3086245#1" probability="1"/>
        <route id="99" edges="-133875236#3 -133875236#1 -133875229 -180869463#1 -133875249#2 -133875226#2 -133875226#0 -3381569#3 94820#0 133875252#0 133875252#3 4338448#0 48665005 115952095#0 -546225667#1 -8769288#1 8769305 32751327 3086252#0 4321650 3086254#0" probability="1"/>
        <route id="100" edges="-133875236#3 -133875236#1 -133875229 -180869463#1 -133875249#2 -133875226#2 -133875226#0 -3381569#3 94820#0 133875252#0 gneE97 -141841564#11 -5191097#3 403281810#0 403281808" probability="1"/>
        <route id="101" edges="-133875245#2 -133875236#3 -133875236#1 -133875229 -180869463#1 -133875249#2 -133875226#2 -133875226#0 -3381569#3 94820#0 133875252#0" probability="1"/>
        <route id="102" edges="-133875245#2 -133875236#3 -133875236#1 -133875229 -180869463#1 -133875249#2 -133875226#2 -133875226#0 -3381569#3 94820#0 133875252#0 133875252#3 133875256#0 133875255 4338449#0 4357619 133875223#0 133875223#1 133875223#3 gneE82" probability="1"/>
        <route id="103" edges="-133875245#2 -133875236#3 -133875236#1 -133875229 -180869463#1 -133875249#2 -133875226#2 -133875226#0 -3381569#3 94820#0 133875252#0 133875252#3 133875256#0 133875255 4338449#0 4357619 133875223#0 133875223#1 133875223#3 gneE82 133875223#6 133875223#11 133875223#17 984881209 37777462 55290809#0 3441738#0 55290801 4236439#0 39333603" probability="1"/>
        <route id="104" edges="-133875245#2 -133875236#3 -133875236#1 -133875229 -180869463#1 -133875249#2 -133875226#2 -133875226#0 -3381569#3 94820#0 133875252#0 133875252#3 133875256#0 133875255 4338449#0 4357619 133875223#0 133875223#1 133875223#3 gneE82 133875223#6 133875223#11 133875223#17 984881209 55290796 4346053 3027099#0 505404870#0 351684045#0 133875181#0 351684503 3025859#0 -3026116#5" probability="1"/>
        <route id="105" edges="-133875245#2 -133875236#3 -133875236#1 -133875229 -180869463#1 -133875249#2 -133875226#2 -133875226#0 -3381569#3 94820#0 133875252#0 133875252#3 133875256#0 133875255 4338449#0 4357619 133875223#0 133875223#1 133875223#3 gneE82 133875223#6 133875223#11 133875223#17 984881209 55290796 4346053 3027099#0 505404870#0 351684045#0 133875181#0 351684503 3025859#0 3025859#5 3025859#6" probability="1"/>
        <route id="106" edges="-133875245#2 -133875236#3 -133875236#1 -133875229 -180869463#1 -133875249#2 -133875226#2 -133875226#0 -3381569#3 94820#0 133875252#0 133875252#3 133875256#0 133875255 4338449#0 4357619 133875223#0 133875223#1 133875223#3 gneE82 133875223#6 133875223#11 133875223#17 984881209 55290796 4346053 3027099#0 505404870#0 351684045#0 133875181#0 351684503 3025859#0 3025859#5 3025859#6 3025859#8 133875261#0 133875262#0 133875260#0 48586818 gneE74 54401064 192674702#0 279357279#1 192674701 58295596#0" probability="1"/>
        <route id="107" edges="-133875245#2 -133875236#3 -133875236#1 -133875229 -180869463#1 -133875249#2 -133875226#2 -133875226#0 -3381569#3 94820#0 133875252#0 133875252#3 133875256#0 133875255 4338449#0 4357619 133875223#0 133875223#1 133875223#3 gneE82 133875223#6 133875223#11 133875223#17 984881209 55290796 4346053 3027099#0 505404870#0 351684045#0 133875181#0 351684503 3025859#0 3025859#5 3025859#6 3025859#8 133875261#0 133875262#0 133875260#0 48586818 gneE74 gneE75 48586837" probability="1"/>
        <route id="108" edges="-133875245#2 -133875236#3 -133875236#1 -133875229 -180869463#1 -133875249#2 -133875226#2 -133875226#0 -3381569#3 94820#0 133875252#0 133875252#3 133875256#0 133875255 4338449#0 4357619 133875223#0 133875223#1 133875223#3 gneE82 133875223#6 133875223#11 133875223#17 984881209 55290796 4346053 3027099#0 505404870#0 351684045#0 133875181#0 351684503 3025859#0 3025859#5 3025859#6 3025859#8 133875261#0 133875262#0 133875260#0 48586818 gneE74 gneE75 48586837 2960931#1 54401052#0 2960939" probability="1"/>
        <route id="109" edges="-133875245#2 -133875236#3 -133875236#1 -133875229 -180869463#1 -133875249#2 -133875226#2 -133875226#0 -3381569#3 94820#0 133875252#0 133875252#3 4338448#0 48665005 115952095#0 -546225667#1 -8769288#1 3120967#0 773250139#1 331545472#2 -210#1 -55290798#2 -209#3 -3292445#8 -3292445#2 gneE109 -4235144#3" probability="1"/>
        <route id="110" edges="-133875245#2 -133875236#3 -133875236#1 -133875229 -180869463#1 -133875249#2 -133875226#2 -133875226#0 -3381569#3 94820#0 133875252#0 133875252#3 4338448#0 48665005 115952095#0 -546225667#1 -8769288#1 3120967#0 773250139#1 331545472#2 3086259#0 3086261 3091989#1 -2524 30991997#1 1040747475 2757#0 2757#1 1025513686#0 1025513686#1 2761 48173166#0 -899656225#3" probability="1"/>
        <route id="111" edges="-133875245#2 -133875236#3 -133875236#1 -133875229 -180869463#1 -133875249#2 -133875226#2 -133875226#0 -3381569#3 94820#0 133875252#0 133875252#3 4338448#0 48665005 115952095#0 -546225667#1 -8769288#1 8769305 309842640#0 39352131#0 39352131#2 39352131#3 837572187#0 3600469#0" probability="1"/>
        <route id="112" edges="-133875245#2 -133875236#3 -133875236#1 -133875229 -180869463#1 -133875249#2 -133875226#2 -133875226#0 -3381569#3 94820#0 133875252#0 133875252#3 4338448#0 48665005 115952095#0 -546225667#1 -8769288#1 8769305 32751327 3086252#0 3086251" probability="1"/>