<?xml version="1.0" encoding="UTF-8"?>

<!-- generated on 2022-04-21 11:14:56 by Eclipse SUMO netconvert Version 1.10.0
<configuration xmlns:xsi="http://www.w3.org/2001/XMLSchema-instance" xsi:noNamespaceSchemaLocation="http://sumo.dlr.de/xsd/netconvertConfiguration.xsd">

    <input>
        <sumo-net-file value="bath3.net.xml"/>
    </input>

    <output>
        <plain-output-prefix value="bath3"/>
    </output>

    <processing>
        <geometry.min-radius.fix.railways value="false"/>
        <geometry.max-grade.fix value="false"/>
        <offset.disable-normalization value="true"/>
        <roundabouts.guess value="false"/>
        <lefthand value="true"/>
    </processing>

    <junctions>
        <no-turnarounds value="true"/>
        <junctions.corner-detail value="5"/>
        <junctions.limit-turn-speed value="5.5"/>
        <rectangular-lane-cut value="false"/>
    </junctions>

    <pedestrian>
        <walkingareas value="false"/>
    </pedestrian>

    <report>
        <aggregate-warnings value="5"/>
    </report>

</configuration>
-->

<tlLogics version="1.9" xmlns:xsi="http://www.w3.org/2001/XMLSchema-instance" xsi:noNamespaceSchemaLocation="http://sumo.dlr.de/xsd/tllogic_file.xsd">
    <tlLogic id="279490" type="actuated" programID="0" offset="0">
        <phase duration="79" state="GG" minDur="13" maxDur="50"/>
        <phase duration="6"  state="yy"/>
        <phase duration="5"  state="rr"/>
    </tlLogic>
    <tlLogic id="471761118" type="actuated" programID="0" offset="0">
        <phase duration="27" state="rrrrrrrGGG" minDur="5" maxDur="50"/>
        <phase duration="3"  state="rrrrrrryyy"/>
        <phase duration="27" state="GGgGrrrrrr" minDur="5" maxDur="50"/>
        <phase duration="3"  state="yyyyrrrrrr"/>
        <phase duration="27" state="rrrGGGgGrr" minDur="5" maxDur="50"/>
        <phase duration="3"  state="rrryyyyyrr"/>
    </tlLogic>
    <tlLogic id="520792121" type="actuated" programID="0" offset="0">
        <phase duration="42" state="Grr" minDur="5" maxDur="50"/>
        <phase duration="3"  state="yrr"/>
        <phase duration="42" state="rGG" minDur="5" maxDur="50"/>
        <phase duration="3"  state="ryy"/>
    </tlLogic>
    <tlLogic id="570812" type="actuated" programID="0" offset="0">
        <phase duration="38" state="GGgGggrrr" minDur="5" maxDur="50"/>
        <phase duration="3"  state="yyyyggrrr"/>
        <phase duration="6"  state="rrrGGGrrr" minDur="5" maxDur="50"/>
        <phase duration="3"  state="rrryyyrrr"/>
        <phase duration="37" state="GrrrrrGGg" minDur="5" maxDur="50"/>
        <phase duration="3"  state="yrrrrryyy"/>
    </tlLogic>
    <tlLogic id="617142403" type="actuated" programID="0" offset="0">
        <phase duration="82" state="GgGg" minDur="5" maxDur="50"/>
        <phase duration="3"  state="yyyy"/>
        <phase duration="5"  state="rrrr"/>
    </tlLogic>
    <tlLogic id="GS_1075355263" type="actuated" programID="0" offset="0">
        <phase duration="42" state="GGrr" minDur="5" maxDur="50"/>
        <phase duration="3"  state="yyrr"/>
        <phase duration="42" state="rrGG" minDur="5" maxDur="50"/>
        <phase duration="3"  state="rryy"/>
    </tlLogic>
    <tlLogic id="GS_126720" type="actuated" programID="0" offset="0">
        <phase duration="33" state="GGggrrrrGGggrrrr" minDur="5" maxDur="50"/>
        <phase duration="3"  state="yyggrrrryyggrrrr"/>
        <phase duration="6"  state="rrGGrrrrrrGGrrrr" minDur="5" maxDur="50"/>
        <phase duration="3"  state="rryyrrrrrryyrrrr"/>
        <phase duration="33" state="rrrrGGggrrrrGGgg" minDur="5" maxDur="50"/>
        <phase duration="3"  state="rrrryyggrrrryygg"/>
        <phase duration="6"  state="rrrrrrGGrrrrrrGG" minDur="5" maxDur="50"/>
        <phase duration="3"  state="rrrrrryyrrrrrryy"/>
    </tlLogic>
    <tlLogic id="GS_253739" type="actuated" programID="0" offset="0">
        <phase duration="42" state="GGG" minDur="5" maxDur="50"/>
        <phase duration="3"  state="yyy"/>
        <phase duration="42" state="GGG" minDur="5" maxDur="50"/>
        <phase duration="3"  state="yyy"/>
    </tlLogic>
    <tlLogic id="GS_257159" type="actuated" programID="0" offset="0">
        <phase duration="42" state="rrrGGggGGGg" minDur="5" maxDur="50"/>
        <phase duration="3"  state="rrryyyyyyyy"/>
        <phase duration="42" state="GGGrrrrrrrr" minDur="5" maxDur="50"/>
        <phase duration="3"  state="yyyrrrrrrrr"/>
    </tlLogic>
    <tlLogic id="GS_279482" type="actuated" programID="0" offset="0">
        <phase duration="38" state="GGgGggrrr" minDur="5" maxDur="50"/>
        <phase duration="3"  state="yyyyggrrr"/>
        <phase duration="6"  state="rrrGGGrrr" minDur="5" maxDur="50"/>
        <phase duration="3"  state="rrryyyrrr"/>
        <phase duration="37" state="GrrrrrGGg" minDur="5" maxDur="50"/>
        <phase duration="3"  state="yrrrrryyy"/>
    </tlLogic>
    <tlLogic id="GS_333571" type="actuated" programID="0" offset="0">
        <phase duration="27" state="rrrGGggrrrGGGg" minDur="5" maxDur="50"/>
        <phase duration="3"  state="rrryyyyrrryyyy"/>
        <phase duration="27" state="GGGrrrrrrrrrrr" minDur="5" maxDur="50"/>
        <phase duration="3"  state="yyyrrrrrrrrrrr"/>
        <phase duration="27" state="rrrrrrrGGgGrrr" minDur="5" maxDur="50"/>
        <phase duration="3"  state="rrrrrrryyyyrrr"/>
    </tlLogic>
    <tlLogic id="GS_379921" type="actuated" programID="0" offset="0">
        <phase duration="25" state="rrrGGGgrrrGGgg" minDur="5" maxDur="50"/>
        <phase duration="5"  state="rrryyyyrrryyyy"/>
        <phase duration="25" state="GGgGrrrrrrrrrr" minDur="5" maxDur="50"/>
        <phase duration="5"  state="yyyyrrrrrrrrrr"/>
        <phase duration="25" state="rrrrrrrGGGrrrr" minDur="10" maxDur="50"/>
        <phase duration="5"  state="rrrrrrryyyrrrr"/>
    </tlLogic>
    <tlLogic id="GS_381489" type="actuated" programID="0" offset="0">
        <phase duration="24" state="GggrrrGGGgrrr" minDur="5" maxDur="50"/>
        <phase duration="3"  state="yggrrryyyyrrr"/>
        <phase duration="6"  state="GGGrrrrrrrrrr" minDur="5" maxDur="50"/>
        <phase duration="3"  state="yyyrrrrrrrrrr"/>
        <phase duration="24" state="rrrrrrrrrrGGG" minDur="5" maxDur="50"/>
        <phase duration="3"  state="rrrrrrrrrryyy"/>
        <phase duration="24" state="rrrGGgGrrrrrr" minDur="5" maxDur="50"/>
        <phase duration="3"  state="rrryyyyrrrrrr"/>
    </tlLogic>
    <tlLogic id="GS_416581489" type="actuated" programID="0" offset="0">
        <phase duration="42" state="GggrrrGGg" minDur="5" maxDur="50"/>
        <phase duration="3"  state="yyyrrryyy"/>
        <phase duration="42" state="rrrGGgGrr" minDur="5" maxDur="50"/>
        <phase duration="3"  state="rrryyyyrr"/>
    </tlLogic>
    <tlLogic id="GS_907153673" type="actuated" programID="0" offset="0">
        <phase duration="42" state="rGgGg" minDur="5" maxDur="50"/>
        <phase duration="3"  state="ryyyy"/>
        <phase duration="42" state="GrgGr" minDur="5" maxDur="50"/>
        <phase duration="3"  state="yryyr"/>
    </tlLogic>
    <tlLogic id="cluster_1070601793_1070601814_4316723365_5364217784" type="actuated" programID="0" offset="0">
        <phase duration="82" state="GGGgGGg" minDur="5" maxDur="50"/>
        <phase duration="3"  state="yyyyyyy"/>
        <phase duration="5"  state="rrrrrrr"/>
    </tlLogic>
    <tlLogic id="cluster_1070737786_2032089847_2032089850_3236294829_506370638" type="actuated" programID="0" offset="0">
        <phase duration="38" state="GGGgGggrrr" minDur="5" maxDur="50"/>
        <phase duration="3"  state="yyyyyggrrr"/>
        <phase duration="6"  state="rrrrGGGrrr" minDur="5" maxDur="50"/>
        <phase duration="3"  state="rrrryyyrrr"/>
        <phase duration="37" state="rrrrrrrGGG" minDur="5" maxDur="50"/>
        <phase duration="3"  state="rrrrrrryyy"/>
    </tlLogic>
    <tlLogic id="cluster_1308681413_1308681418_257157_450126371" type="actuated" programID="0" offset="0">
        <phase duration="27" state="GGGgGrrrrrrrrrr" minDur="5" maxDur="50"/>
        <phase duration="3"  state="yyyyyrrrrrrrrrr"/>
        <phase duration="27" state="rrrrGGGgGgrrrrr" minDur="5" maxDur="50"/>
        <phase duration="3"  state="rrrryyyyyyrrrrr"/>
        <phase duration="27" state="GrrrrrrrrrGGGGg" minDur="5" maxDur="50"/>
        <phase duration="3"  state="yrrrrrrrrryyyyy"/>
    </tlLogic>
    <tlLogic id="cluster_14916913_2730902041_627067328_627089777" type="actuated" programID="0" offset="0">
        <phase duration="27" state="rrrGGgGggrrr" minDur="5" maxDur="50"/>
        <phase duration="3"  state="rrryyyyyyrrr"/>
        <phase duration="27" state="rrrrrrrrrGGG" minDur="5" maxDur="50"/>
        <phase duration="3"  state="rrrrrrrrryyy"/>
        <phase duration="27" state="GGgGrrrrrrrr" minDur="5" maxDur="50"/>
        <phase duration="3"  state="yyyyrrrrrrrr"/>
    </tlLogic>
    <tlLogic id="cluster_288271135_288271373_333099_333108_443120943_555196291_740158974" type="actuated" programID="0" offset="0">
        <phase duration="42" state="GGgGGrr" minDur="5" maxDur="50"/>
        <phase duration="3"  state="yyyyyrr"/>
        <phase duration="42" state="rrrGGGG" minDur="5" maxDur="50"/>
        <phase duration="3"  state="rrryyyy"/>
    </tlLogic>
    <tlLogic id="cluster_3577030724_3577030726_3577030733" type="actuated" programID="0" offset="0">
        <phase duration="82" state="GGGGGgg" minDur="5" maxDur="50"/>
        <phase duration="3"  state="yyyyyyy"/>
        <phase duration="5"  state="rrrrrrr"/>
    </tlLogic>
    <tlLogic id="cluster_443914196_4910563205_4910563207_7846562043" type="actuated" programID="0" offset="0">
        <phase duration="42" state="GGGrrr" minDur="5" maxDur="50"/>
        <phase duration="3"  state="yyyrrr"/>
        <phase duration="42" state="GGrGGg" minDur="5" maxDur="50"/>
        <phase duration="3"  state="yyryyy"/>
    </tlLogic>
    <tlLogic id="joinedS_0" type="actuated" programID="0" offset="0">
        <phase duration="15" state="GGrrrrrrrrrr" minDur="5" maxDur="50"/>
        <phase duration="3"  state="yyrrrrrrrrrr"/>
        <phase duration="15" state="rrGGGrrrrrrr" minDur="5" maxDur="50"/>
        <phase duration="3"  state="rryyyrrrrrrr"/>
        <phase duration="15" state="rrrrrGGGrrrr" minDur="5" maxDur="50"/>
        <phase duration="3"  state="rrrrryyyrrrr"/>
        <phase duration="15" state="rrrrrrrrGGrr" minDur="5" maxDur="50"/>
        <phase duration="3"  state="rrrrrrrryyrr"/>
        <phase duration="15" state="rrrrrrrrrrGG" minDur="5" maxDur="50"/>
        <phase duration="3"  state="rrrrrrrrrryy"/>
    </tlLogic>
    <tlLogic id="joinedS_1" type="actuated" programID="0" offset="0">
        <phase duration="27" state="rrrGGGGrG" minDur="5" maxDur="50"/>
        <phase duration="3"  state="rrryyyyry"/>
        <phase duration="27" state="GGGrrGGrG" minDur="5" maxDur="50"/>
        <phase duration="3"  state="yyyrryyry"/>
        <phase duration="27" state="rrgGGrrGG" minDur="5" maxDur="50"/>
        <phase duration="3"  state="rryyyrryy"/>
    </tlLogic>

    <connection from="-133875181#0" to="-55290805" fromLane="0" toLane="0" tl="GS_907153673" linkIndex="1"/>
    <connection from="-133875181#0" to="133875181#0" fromLane="0" toLane="0" tl="GS_907153673" linkIndex="2"/>
    <connection from="-133875235#0" to="-404611919#5" fromLane="0" toLane="0" tl="GS_126720" linkIndex="8"/>
    <connection from="-133875235#0" to="-133875245#5" fromLane="0" toLane="0" tl="GS_126720" linkIndex="9"/>
    <connection from="-133875235#0" to="3057563#0" fromLane="1" toLane="0" tl="GS_126720" linkIndex="10"/>
    <connection from="-133875235#0" to="133875235#0" fromLane="1" toLane="0" tl="GS_126720" linkIndex="11"/>
    <connection from="-133875249#0" to="-133875226#2" fromLane="0" toLane="0" tl="570812" linkIndex="3"/>
    <connection from="-133875249#0" to="2955747#0" fromLane="1" toLane="0" tl="570812" linkIndex="4"/>
    <connection from="-133875249#0" to="133875249#0" fromLane="1" toLane="0" tl="570812" linkIndex="5"/>
    <connection from="-133875262#0" to="-133875261#1" fromLane="0" toLane="0" tl="GS_279482" linkIndex="3"/>
    <connection from="-133875262#0" to="-3025839#7" fromLane="1" toLane="0" tl="GS_279482" linkIndex="4"/>
    <connection from="-133875262#0" to="133875262#0" fromLane="1" toLane="0" tl="GS_279482" linkIndex="5"/>
    <connection from="-167257#0" to="8769305" fromLane="0" toLane="0" tl="GS_257159" linkIndex="7"/>
    <connection from="-167257#0" to="3120967#0" fromLane="0" toLane="0" tl="GS_257159" linkIndex="8"/>
    <connection from="-167257#0" to="3120967#0" fromLane="1" toLane="1" tl="GS_257159" linkIndex="9"/>
    <connection from="-167257#0" to="167257#0" fromLane="1" toLane="1" tl="GS_257159" linkIndex="10"/>
    <connection from="-192668650#1" to="212#0" fromLane="0" toLane="0" tl="cluster_1070737786_2032089847_2032089850_3236294829_506370638" linkIndex="4"/>
    <connection from="-192668650#1" to="192668649#1" fromLane="1" toLane="0" tl="cluster_1070737786_2032089847_2032089850_3236294829_506370638" linkIndex="5"/>
    <connection from="-192668650#1" to="192668650#1" fromLane="1" toLane="1" tl="cluster_1070737786_2032089847_2032089850_3236294829_506370638" linkIndex="6"/>
    <connection from="-198245314#1" to="-198245314#0" fromLane="0" toLane="0" tl="GS_416581489" linkIndex="6"/>
    <connection from="-198245314#1" to="-37777243#4" fromLane="0" toLane="0" tl="GS_416581489" linkIndex="7"/>
    <connection from="-198245314#1" to="198245314#1" fromLane="1" toLane="1" tl="GS_416581489" linkIndex="8"/>
    <connection from="-207644855#3" to="-444272568#7" fromLane="0" toLane="0" tl="cluster_14916913_2730902041_627067328_627089777" linkIndex="6"/>
    <connection from="-207644855#3" to="-34724285#3" fromLane="0" toLane="1" tl="cluster_14916913_2730902041_627067328_627089777" linkIndex="7"/>
    <connection from="-207644855#3" to="207644855#3" fromLane="0" toLane="0" tl="cluster_14916913_2730902041_627067328_627089777" linkIndex="8"/>
    <connection from="-209#0" to="-127654225#19" fromLane="0" toLane="0" tl="GS_333571" linkIndex="10"/>
    <connection from="-209#0" to="-3292445#8" fromLane="0" toLane="0" tl="GS_333571" linkIndex="11"/>
    <connection from="-209#0" to="-3292445#8" fromLane="1" toLane="1" tl="GS_333571" linkIndex="12"/>
    <connection from="-209#0" to="209#0" fromLane="1" toLane="1" tl="GS_333571" linkIndex="13"/>
    <connection from="-212#0" to="192668649#1" fromLane="0" toLane="0" tl="cluster_1070737786_2032089847_2032089850_3236294829_506370638" linkIndex="0"/>
    <connection from="-212#0" to="192668650#1" fromLane="0" toLane="0" tl="cluster_1070737786_2032089847_2032089850_3236294829_506370638" linkIndex="1"/>
    <connection from="-212#0" to="192668650#1" fromLane="1" toLane="1" tl="cluster_1070737786_2032089847_2032089850_3236294829_506370638" linkIndex="2"/>
    <connection from="-212#0" to="212#0" fromLane="1" toLane="0" tl="cluster_1070737786_2032089847_2032089850_3236294829_506370638" linkIndex="3"/>
    <connection from="-2745#0" to="-3609801#3" fromLane="0" toLane="0" tl="GS_381489" linkIndex="3"/>
    <connection from="-2745#0" to="-39348547#2" fromLane="1" toLane="0" tl="GS_381489" linkIndex="4"/>
    <connection from="-2745#0" to="2745#0" fromLane="1" toLane="0" tl="GS_381489" linkIndex="5"/>
    <connection from="-2756#0" to="2757#0" fromLane="0" toLane="0" tl="joinedS_1" linkIndex="0"/>
    <connection from="-2756#0" to="2757#0" fromLane="1" toLane="1" tl="joinedS_1" linkIndex="1"/>
    <connection from="-2756#0" to="2756#0" fromLane="1" toLane="1" tl="joinedS_1" linkIndex="2"/>
    <connection from="-2955747#0" to="133875249#0" fromLane="0" toLane="0" tl="570812" linkIndex="6"/>
    <connection from="-2955747#0" to="-133875226#2" fromLane="0" toLane="0" tl="570812" linkIndex="7"/>
    <connection from="-2955747#0" to="2955747#0" fromLane="0" toLane="0" tl="570812" linkIndex="8"/>
    <connection from="-3057563#0" to="133875235#0" fromLane="0" toLane="0" tl="GS_126720" linkIndex="12"/>
    <connection from="-3057563#0" to="-404611919#5" fromLane="0" toLane="0" tl="GS_126720" linkIndex="13"/>
    <connection from="-3057563#0" to="-133875245#5" fromLane="0" toLane="0" tl="GS_126720" linkIndex="14"/>
    <connection from="-3057563#0" to="3057563#0" fromLane="0" toLane="0" tl="GS_126720" linkIndex="15"/>
    <connection from="-3086258" to="331545472#2" fromLane="0" toLane="0" tl="cluster_443914196_4910563205_4910563207_7846562043" linkIndex="3"/>
    <connection from="-3086258" to="331545472#2" fromLane="1" toLane="1" tl="cluster_443914196_4910563205_4910563207_7846562043" linkIndex="4"/>
    <connection from="-3086258" to="3086258" fromLane="1" toLane="1" tl="cluster_443914196_4910563205_4910563207_7846562043" linkIndex="5"/>
    <connection from="-3086259#0" to="30992002" fromLane="0" toLane="0" tl="471761118" linkIndex="0"/>
    <connection from="-3086259#0" to="-210#1" fromLane="0" toLane="1" tl="471761118" linkIndex="1"/>
    <connection from="-3086259#0" to="3086259#0" fromLane="0" toLane="0" tl="471761118" linkIndex="2"/>
    <connection from="-3120967#0" to="167257#0" fromLane="0" toLane="0" tl="GS_257159" linkIndex="3"/>
    <connection from="-3120967#0" to="167257#0" fromLane="1" toLane="1" tl="GS_257159" linkIndex="4"/>
    <connection from="-3120967#0" to="8769305" fromLane="1" toLane="1" tl="GS_257159" linkIndex="5"/>
    <connection from="-3120967#0" to="3120967#0" fromLane="1" toLane="1" tl="GS_257159" linkIndex="6"/>
    <connection from="-3441624#0" to="-30905#1" fromLane="0" toLane="0" tl="cluster_1308681413_1308681418_257157_450126371" linkIndex="10"/>
    <connection from="-3441624#0" to="115952099#2" fromLane="0" toLane="0" tl="cluster_1308681413_1308681418_257157_450126371" linkIndex="11"/>
    <connection from="-3441624#0" to="-546225667#1" fromLane="0" toLane="0" tl="cluster_1308681413_1308681418_257157_450126371" linkIndex="12"/>
    <connection from="-3441624#0" to="-546225667#1" fromLane="1" toLane="1" tl="cluster_1308681413_1308681418_257157_450126371" linkIndex="13"/>
    <connection from="-3441624#0" to="3441624#0" fromLane="1" toLane="1" tl="cluster_1308681413_1308681418_257157_450126371" linkIndex="14"/>
    <connection from="-884727976#0" to="-8769288#1" fromLane="0" toLane="0" tl="GS_379921" linkIndex="10"/>
    <connection from="-884727976#0" to="-8769288#1" fromLane="1" toLane="1" tl="GS_379921" linkIndex="11"/>
    <connection from="-884727976#0" to="-55602323#6" fromLane="1" toLane="0" tl="GS_379921" linkIndex="12"/>
    <connection from="-884727976#0" to="884727976#0" fromLane="1" toLane="1" tl="GS_379921" linkIndex="13"/>
    <connection from="1040747475" to="2757#1" fromLane="0" toLane="0" tl="joinedS_1" linkIndex="7"/>
    <connection from="1040747475" to="55296264#1" fromLane="1" toLane="0" tl="joinedS_1" linkIndex="8"/>
    <connection from="115952095#1" to="-546225667#1" fromLane="0" toLane="0" tl="cluster_1308681413_1308681418_257157_450126371" linkIndex="4"/>
    <connection from="115952095#1" to="3441624#0" fromLane="1" toLane="1" tl="cluster_1308681413_1308681418_257157_450126371" linkIndex="5"/>
    <connection from="115952095#1" to="-30905#1" fromLane="1" toLane="0" tl="cluster_1308681413_1308681418_257157_450126371" linkIndex="6"/>
    <connection from="115952095#1" to="115952099#2" fromLane="1" toLane="0" tl="cluster_1308681413_1308681418_257157_450126371" linkIndex="7"/>
    <connection from="127654225#19" to="-3292445#8" fromLane="0" toLane="0" tl="GS_333571" linkIndex="7"/>
    <connection from="127654225#19" to="209#0" fromLane="0" toLane="1" tl="GS_333571" linkIndex="8"/>
    <connection from="127654225#19" to="-127654225#19" fromLane="0" toLane="0" tl="GS_333571" linkIndex="9"/>
    <connection from="131628669" to="3126772#0" fromLane="0" toLane="0" tl="cluster_1070601793_1070601814_4316723365_5364217784" linkIndex="0"/>
    <connection from="131628669" to="-3120967#1" fromLane="0" toLane="0" tl="cluster_1070601793_1070601814_4316723365_5364217784" linkIndex="1"/>
    <connection from="131628669" to="-3120967#1" fromLane="1" toLane="1" tl="cluster_1070601793_1070601814_4316723365_5364217784" linkIndex="2"/>
    <connection from="131628669" to="773250139#1" fromLane="1" toLane="1" tl="cluster_1070601793_1070601814_4316723365_5364217784" linkIndex="3"/>
    <connection from="133875226#2" to="2955747#0" fromLane="0" toLane="0" tl="570812" linkIndex="0"/>
    <connection from="133875226#2" to="133875249#0" fromLane="0" toLane="0" tl="570812" linkIndex="1"/>
    <connection from="133875226#2" to="-133875226#2" fromLane="1" toLane="0" tl="570812" linkIndex="2"/>
    <connection from="133875244#3" to="133875232#0" fromLane="0" toLane="0" tl="joinedS_0" linkIndex="5"/>
    <connection from="133875244#3" to="133875232#0" fromLane="1" toLane="1" tl="joinedS_0" linkIndex="6"/>
    <connection from="133875244#3" to="4338446#0" fromLane="2" toLane="0" tl="joinedS_0" linkIndex="7"/>
    <connection from="133875245#5" to="3057563#0" fromLane="0" toLane="0" tl="GS_126720" linkIndex="0"/>
    <connection from="133875245#5" to="133875235#0" fromLane="0" toLane="0" tl="GS_126720" linkIndex="1"/>
    <connection from="133875245#5" to="-404611919#5" fromLane="1" toLane="0" tl="GS_126720" linkIndex="2"/>
    <connection from="133875245#5" to="-133875245#5" fromLane="1" toLane="0" tl="GS_126720" linkIndex="3"/>
    <connection from="133875252#2" to="133875252#3" fromLane="0" toLane="0" tl="joinedS_0" linkIndex="2"/>
    <connection from="133875252#2" to="133875252#3" fromLane="1" toLane="1" tl="joinedS_0" linkIndex="3"/>
    <connection from="133875252#2" to="133875252#3" fromLane="2" toLane="2" tl="joinedS_0" linkIndex="4"/>
    <connection from="133875256#2" to="133875255" fromLane="0" toLane="1" tl="GS_253739" linkIndex="1"/>
    <connection from="133875256#2" to="133875255" fromLane="1" toLane="2" tl="GS_253739" linkIndex="2"/>
    <connection from="133875259#2" to="133875244#0" fromLane="0" toLane="1" tl="GS_1075355263" linkIndex="2"/>
    <connection from="133875259#2" to="133875244#0" fromLane="1" toLane="2" tl="GS_1075355263" linkIndex="3"/>
    <connection from="133875260#3" to="48586818" fromLane="0" toLane="0" tl="617142403" linkIndex="0"/>
    <connection from="133875260#3" to="-133875260#3" fromLane="0" toLane="0" tl="617142403" linkIndex="1"/>
    <connection from="133875261#1" to="-3025839#7" fromLane="0" toLane="0" tl="GS_279482" linkIndex="0"/>
    <connection from="133875261#1" to="133875262#0" fromLane="0" toLane="0" tl="GS_279482" linkIndex="1"/>
    <connection from="133875261#1" to="-133875261#1" fromLane="1" toLane="0" tl="GS_279482" linkIndex="2"/>
    <connection from="133875263" to="38963969#0" fromLane="0" toLane="0" tl="279490" linkIndex="0"/>
    <connection from="133875263" to="4893261" fromLane="1" toLane="0" tl="279490" linkIndex="1"/>
    <connection from="188924487#5" to="209#0" fromLane="0" toLane="0" tl="GS_333571" linkIndex="0"/>
    <connection from="188924487#5" to="-127654225#19" fromLane="0" toLane="0" tl="GS_333571" linkIndex="1"/>
    <connection from="188924487#5" to="-3292445#8" fromLane="1" toLane="1" tl="GS_333571" linkIndex="2"/>
    <connection from="198245314#0" to="-37777243#4" fromLane="0" toLane="0" tl="GS_416581489" linkIndex="3"/>
    <connection from="198245314#0" to="198245314#1" fromLane="1" toLane="1" tl="GS_416581489" linkIndex="4"/>
    <connection from="198245314#0" to="-198245314#0" fromLane="1" toLane="1" tl="GS_416581489" linkIndex="5"/>
    <connection from="203240967#2" to="55296262" fromLane="0" toLane="0" tl="cluster_288271135_288271373_333099_333108_443120943_555196291_740158974" linkIndex="0"/>
    <connection from="203240967#2" to="55296262" fromLane="1" toLane="1" tl="cluster_288271135_288271373_333099_333108_443120943_555196291_740158974" linkIndex="1"/>
    <connection from="203240967#2" to="-203240967#2" fromLane="1" toLane="1" tl="cluster_288271135_288271373_333099_333108_443120943_555196291_740158974" linkIndex="2"/>
    <connection from="210#1" to="3086259#0" fromLane="0" toLane="0" tl="471761118" linkIndex="3"/>
    <connection from="210#1" to="30992002" fromLane="0" toLane="0" tl="471761118" linkIndex="4"/>
    <connection from="210#1" to="30992002" fromLane="1" toLane="1" tl="471761118" linkIndex="5"/>
    <connection from="210#1" to="-210#1" fromLane="1" toLane="1" tl="471761118" linkIndex="6"/>
    <connection from="2757#0" to="2757#1" fromLane="0" toLane="0" tl="joinedS_1" linkIndex="5"/>
    <connection from="2757#0" to="2757#1" fromLane="1" toLane="1" tl="joinedS_1" linkIndex="6"/>
    <connection from="3025519#1" to="192668650#1" fromLane="0" toLane="0" tl="cluster_1070737786_2032089847_2032089850_3236294829_506370638" linkIndex="7"/>
    <connection from="3025519#1" to="212#0" fromLane="0" toLane="0" tl="cluster_1070737786_2032089847_2032089850_3236294829_506370638" linkIndex="8"/>
    <connection from="3025519#1" to="192668649#1" fromLane="0" toLane="0" tl="cluster_1070737786_2032089847_2032089850_3236294829_506370638" linkIndex="9"/>
    <connection from="3025839#7" to="133875262#0" fromLane="0" toLane="0" tl="GS_279482" linkIndex="6"/>
    <connection from="3025839#7" to="-133875261#1" fromLane="0" toLane="0" tl="GS_279482" linkIndex="7"/>
    <connection from="3025839#7" to="-3025839#7" fromLane="0" toLane="0" tl="GS_279482" linkIndex="8"/>
    <connection from="3027099#1" to="505404870#0" fromLane="0" toLane="0" tl="cluster_3577030724_3577030726_3577030733" linkIndex="3"/>
    <connection from="3027099#1" to="505404870#0" fromLane="1" toLane="1" tl="cluster_3577030724_3577030726_3577030733" linkIndex="4"/>
    <connection from="3027099#1" to="3027087#0" fromLane="1" toLane="0" tl="cluster_3577030724_3577030726_3577030733" linkIndex="5"/>
    <connection from="3027099#1" to="133875195#0" fromLane="1" toLane="1" tl="cluster_3577030724_3577030726_3577030733" linkIndex="6"/>
    <connection from="30905#1" to="115952099#2" fromLane="0" toLane="0" tl="cluster_1308681413_1308681418_257157_450126371" linkIndex="8"/>
    <connection from="30905#1" to="-30905#1" fromLane="0" toLane="0" tl="cluster_1308681413_1308681418_257157_450126371" linkIndex="9"/>
    <connection from="3120967#1" to="773250139#1" fromLane="0" toLane="0" tl="cluster_1070601793_1070601814_4316723365_5364217784" linkIndex="4"/>
    <connection from="3120967#1" to="773250139#1" fromLane="1" toLane="1" tl="cluster_1070601793_1070601814_4316723365_5364217784" linkIndex="5"/>
    <connection from="3120967#1" to="-3120967#1" fromLane="1" toLane="1" tl="cluster_1070601793_1070601814_4316723365_5364217784" linkIndex="6"/>
    <connection from="3292445#8" to="209#0" fromLane="0" toLane="0" tl="GS_333571" linkIndex="3"/>
    <connection from="3292445#8" to="209#0" fromLane="1" toLane="1" tl="GS_333571" linkIndex="4"/>
    <connection from="3292445#8" to="-127654225#19" fromLane="1" toLane="0" tl="GS_333571" linkIndex="5"/>
    <connection from="3292445#8" to="-3292445#8" fromLane="1" toLane="1" tl="GS_333571" linkIndex="6"/>
    <connection from="331545472#2" to="-210#1" fromLane="0" toLane="0" tl="471761118" linkIndex="7"/>
    <connection from="331545472#2" to="3086259#0" fromLane="0" toLane="0" tl="471761118" linkIndex="8"/>
    <connection from="331545472#2" to="30992002" fromLane="1" toLane="1" tl="471761118" linkIndex="9"/>
    <connection from="34243632#1" to="3027087#0" fromLane="0" toLane="0" tl="cluster_3577030724_3577030726_3577030733" linkIndex="0"/>
    <connection from="34243632#1" to="133875195#0" fromLane="0" toLane="0" tl="cluster_3577030724_3577030726_3577030733" linkIndex="1"/>
    <connection from="34243632#1" to="133875195#0" fromLane="0" toLane="1" tl="cluster_3577030724_3577030726_3577030733" linkIndex="2"/>
    <connection from="34724285#3" to="207644855#3" fromLane="0" toLane="0" tl="cluster_14916913_2730902041_627067328_627089777" linkIndex="0"/>
    <connection from="34724285#3" to="-444272568#7" fromLane="1" toLane="1" tl="cluster_14916913_2730902041_627067328_627089777" linkIndex="1"/>
    <connection from="34724285#3" to="-34724285#3" fromLane="1" toLane="1" tl="cluster_14916913_2730902041_627067328_627089777" linkIndex="2"/>
    <connection from="3609801#3" to="-39348547#2" fromLane="0" toLane="0" tl="GS_381489" linkIndex="0"/>
    <connection from="3609801#3" to="2745#0" fromLane="1" toLane="0" tl="GS_381489" linkIndex="1"/>
    <connection from="3609801#3" to="-3609801#3" fromLane="1" toLane="1" tl="GS_381489" linkIndex="2"/>
    <connection from="37777243#4" to="198245314#1" fromLane="0" toLane="0" tl="GS_416581489" linkIndex="0"/>
    <connection from="37777243#4" to="-198245314#0" fromLane="0" toLane="1" tl="GS_416581489" linkIndex="1"/>
    <connection from="37777243#4" to="-37777243#4" fromLane="0" toLane="0" tl="GS_416581489" linkIndex="2"/>
    <connection from="37869496#1" to="-55290805" fromLane="0" toLane="0" tl="GS_907153673" linkIndex="0"/>
    <connection from="38619223#2" to="133875255" fromLane="0" toLane="0" tl="GS_253739" linkIndex="0"/>
    <connection from="39333941#5" to="167257#0" fromLane="0" toLane="0" tl="GS_257159" linkIndex="0"/>
    <connection from="39333941#5" to="8769305" fromLane="0" toLane="1" tl="GS_257159" linkIndex="1"/>
    <connection from="39333941#5" to="3120967#0" fromLane="0" toLane="1" tl="GS_257159" linkIndex="2"/>
    <connection from="39348547#2" to="2745#0" fromLane="0" toLane="0" tl="GS_381489" linkIndex="6"/>
    <connection from="39348547#2" to="-3609801#3" fromLane="0" toLane="0" tl="GS_381489" linkIndex="7"/>
    <connection from="39348547#2" to="-3609801#3" fromLane="1" toLane="1" tl="GS_381489" linkIndex="8"/>
    <connection from="39348547#2" to="-39348547#2" fromLane="1" toLane="0" tl="GS_381489" linkIndex="9"/>
    <connection from="39654987#1" to="133875252#3" fromLane="0" toLane="0" tl="joinedS_0" linkIndex="0"/>