<?xml version="1.0" encoding="UTF-8"?>

<!-- generated on 2022-04-21 11:14:56 by Eclipse SUMO netconvert Version 1.10.0
<configuration xmlns:xsi="http://www.w3.org/2001/XMLSchema-instance" xsi:noNamespaceSchemaLocation="http://sumo.dlr.de/xsd/netconvertConfiguration.xsd">

    <input>
        <sumo-net-file value="bath3.net.xml"/>
    </input>

    <output>
        <plain-output-prefix value="bath3"/>
    </output>

    <processing>
        <geometry.min-radius.fix.railways value="false"/>
        <geometry.max-grade.fix value="false"/>
        <offset.disable-normalization value="true"/>
        <roundabouts.guess value="false"/>
        <lefthand value="true"/>
    </processing>

    <junctions>
        <no-turnarounds value="true"/>
        <junctions.corner-detail value="5"/>
        <junctions.limit-turn-speed value="5.5"/>
        <rectangular-lane-cut value="false"/>
    </junctions>

    <pedestrian>
        <walkingareas value="false"/>
    </pedestrian>

    <report>
        <aggregate-warnings value="5"/>
    </report>

</configuration>
-->

<edges version="1.9" xmlns:xsi="http://www.w3.org/2001/XMLSchema-instance" xsi:noNamespaceSchemaLocation="http://sumo.dlr.de/xsd/edges_file.xsd">
    <edge id="-1040746855" from="14378869" to="25292611" priority="4" type="highway.unclassified" numLanes="1" speed="8.94" disallow="tram rail_urban rail rail_electric rail_fast ship"/>
    <edge id="-118046504#0" from="1328567197" to="1328567220" priority="3" type="highway.residential" numLanes="1" speed="8.94" disallow="tram rail_urban rail rail_electric rail_fast ship"/>
    <edge id="-118046504#1" from="1328567217" to="1328567197" priority="3" type="highway.residential" numLanes="1" speed="8.94" disallow="tram rail_urban rail rail_electric rail_fast ship"/>
    <edge id="-124536801#0" from="7151450650" to="cluster_13868226_445133677" priority="3" type="highway.residential" numLanes="1" speed="13.89" shape="1523.08,1976.37 1529.21,1974.46 1537.86,1974.39" disallow="tram rail_urban rail rail_electric rail_fast ship"/>
    <edge id="-124536801#1" from="6821147688" to="7151450650" priority="3" type="highway.residential" numLanes="1" speed="13.89" shape="1485.99,2001.26 1489.18,1999.46 1516.84,1980.07 1523.08,1976.37" disallow="tram rail_urban rail rail_electric rail_fast ship"/>
    <edge id="-124536801#2" from="6821147689" to="6821147688" priority="3" type="highway.residential" numLanes="1" speed="13.89" shape="1442.99,2028.15 1473.06,2007.86 1485.99,2001.26" disallow="tram rail_urban rail rail_electric rail_fast ship"/>
    <edge id="-127654225#0" from="7151450654" to="13868219" priority="10" type="highway.tertiary" numLanes="1" speed="13.41" shape="1534.94,1986.51 1534.01,1990.02 1533.09,2001.94 1534.26,2012.57 1544.61,2053.47 1545.23,2055.91 1549.96,2081.00 1565.76,2160.84 1571.45,2189.33 1573.84,2196.33" disallow="tram rail_urban rail rail_electric rail_fast ship"/>
    <edge id="-127654225#1" from="cluster_13868226_445133677" to="7151450654" priority="10" type="highway.tertiary" numLanes="1" speed="13.41" shape="1537.29,1977.58 1534.94,1986.51" disallow="tram rail_urban rail rail_electric rail_fast ship"/>
    <edge id="-127654225#10" from="494155935" to="457163301" priority="10" type="highway.tertiary" numLanes="1" speed="13.41" shape="1706.72,1791.23 1702.42,1800.62 1696.60,1812.25" disallow="tram rail_urban rail rail_electric rail_fast ship"/>
    <edge id="-127654225#11" from="494155936" to="494155935" priority="10" type="highway.tertiary" numLanes="1" speed="13.41" shape="1737.31,1688.62 1735.42,1705.15 1729.94,1729.67 1726.36,1742.83 1716.53,1766.53 1706.72,1791.23" disallow="tram rail_urban rail rail_electric rail_fast ship"/>
    <edge id="-127654225#12" from="cluster_1346739201_1974880" to="494155936" priority="10" type="highway.tertiary" numLanes="1" speed="13.41" shape="1738.86,1654.77 1739.33,1662.37 1737.31,1688.62" disallow="tram rail_urban rail rail_electric rail_fast ship"/>
    <edge id="-127654225#14" from="333575" to="cluster_1346739201_1974880" priority="10" type="highway.tertiary" numLanes="1" speed="13.41" shape="1743.05,1584.60 1738.32,1635.86 1738.80,1650.90" disallow="tram rail_urban rail rail_electric rail_fast ship"/>
    <edge id="-127654225#15" from="333578" to="333575" priority="10" type="highway.tertiary" numLanes="1" speed="13.41" shape="1755.21,1510.23 1752.38,1519.14 1743.05,1584.60" disallow="tram rail_urban rail rail_electric rail_fast ship"/>
    <edge id="-127654225#16" from="472503241" to="333578" priority="10" type="highway.tertiary" numLanes="1" speed="13.41" disallow="tram rail_urban rail rail_electric rail_fast ship"/>
    <edge id="-127654225#17" from="3557100327" to="472503241" priority="10" type="highway.tertiary" numLanes="1" speed="13.41" disallow="tram rail_urban rail rail_electric rail_fast ship"/>
    <edge id="-127654225#18" from="5148388632" to="3557100327" priority="10" type="highway.tertiary" numLanes="1" speed="13.41" disallow="tram rail_urban rail rail_electric rail_fast ship"/>
    <edge id="-127654225#19" from="333571" to="5148388632" priority="10" type="highway.tertiary" numLanes="1" speed="13.41" shape="1787.69,1411.70 1787.98,1421.36 1786.32,1430.30 1783.63,1435.05 1780.34,1438.98 1776.57,1444.87" disallow="tram rail_urban rail rail_electric rail_fast ship"/>
    <edge id="-127654225#3" from="1328567182" to="cluster_13868226_445133677" priority="10" type="highway.tertiary" numLanes="1" speed="13.41" shape="1540.84,1966.22 1537.86,1974.39" disallow="tram rail_urban rail rail_electric rail_fast ship"/>
    <edge id="-127654225#4" from="4622219736" to="1328567182" priority="10" type="highway.tertiary" numLanes="1" speed="13.41" shape="1580.17,1926.06 1546.04,1959.18 1540.84,1966.22" disallow="tram rail_urban rail rail_electric rail_fast ship"/>
    <edge id="-127654225#5" from="4622219732" to="4622219736" priority="10" type="highway.tertiary" numLanes="1" speed="13.41" shape="1587.50,1917.81 1582.36,1923.95 1580.17,1926.06" disallow="tram rail_urban rail rail_electric rail_fast ship"/>
    <edge id="-127654225#6" from="13804901" to="4622219732" priority="10" type="highway.tertiary" numLanes="1" speed="13.41" shape="1631.24,1860.96 1616.54,1877.71 1595.26,1908.58 1587.50,1917.81" disallow="tram rail_urban rail rail_electric rail_fast ship"/>
    <edge id="-127654225#7" from="15523264" to="13804901" priority="10" type="highway.tertiary" numLanes="1" speed="13.41" shape="1681.09,1827.11 1656.61,1842.28 1631.24,1860.96" disallow="tram rail_urban rail rail_electric rail_fast ship"/>
    <edge id="-127654225#8" from="13804897" to="15523264" priority="10" type="highway.tertiary" numLanes="1" speed="13.41" shape="1693.53,1816.83 1688.11,1822.20 1681.09,1827.11" disallow="tram rail_urban rail rail_electric rail_fast ship"/>
    <edge id="-127654225#9" from="457163301" to="13804897" priority="10" type="highway.tertiary" numLanes="1" speed="13.41" disallow="tram rail_urban rail rail_electric rail_fast ship"/>
    <edge id="-133154160#0" from="457438663" to="363431" priority="10" type="highway.tertiary" numLanes="1" speed="22.22" shape="904.67,556.17 887.70,563.22 861.08,575.10" disallow="tram rail_urban rail rail_electric rail_fast ship"/>
    <edge id="-133154160#1" from="363430" to="457438663" priority="10" type="highway.tertiary" numLanes="1" speed="22.22" shape="1080.83,515.09 1053.18,511.01 1014.46,500.08 1003.30,500.25 993.24,502.95 981.06,509.99 972.75,519.08 961.42,537.10 952.01,550.26 944.07,556.92 934.80,559.67 924.32,559.44 912.45,556.11 904.67,556.17" disallow="tram rail_urban rail rail_electric rail_fast ship"/>
    <edge id="-133154160#2" from="13911122" to="363430" priority="10" type="highway.tertiary" numLanes="1" speed="22.22" shape="1153.53,516.81 1133.25,514.61 1080.83,515.09" disallow="tram rail_urban rail rail_electric rail_fast ship"/>
    <edge id="-133154160#3" from="363428" to="13911122" priority="10" type="highway.tertiary" numLanes="1" speed="22.22" shape="1176.46,527.69 1165.79,521.13 1153.53,516.81" disallow="tram rail_urban rail rail_electric rail_fast ship"/>
    <edge id="-133154160#4" from="363427" to="363428" priority="10" type="highway.tertiary" numLanes="1" speed="22.22" shape="1235.72,596.46 1222.23,577.45 1176.46,527.69" disallow="tram rail_urban rail rail_electric rail_fast ship"/>
    <edge id="-133875181#0" from="907153645" to="907153673" priority="13" type="highway.trunk" numLanes="1" speed="13.41" disallow="pedestrian bicycle tram rail_urban rail rail_electric rail_fast ship">
        <param key="ref" value="A36"/>
    </edge>
    <edge id="-133875181#1" from="3283890346" to="907153645" priority="13" type="highway.trunk" numLanes="1" speed="13.41" disallow="pedestrian bicycle tram rail_urban rail rail_electric rail_fast ship">
        <param key="ref" value="A36"/>
    </edge>
    <edge id="-133875181#2" from="907153661" to="3283890346" priority="13" type="highway.trunk" numLanes="1" speed="13.41" disallow="pedestrian bicycle tram rail_urban rail rail_electric rail_fast ship">
        <param key="ref" value="A36"/>
    </edge>
    <edge id="-133875188#0" from="13912223" to="479034388" priority="13" type="highway.trunk" numLanes="1" speed="13.41" shape="2496.67,1617.79 2591.34,1682.04 2599.24,1685.47 2606.02,1687.53 2612.62,1688.21 2619.73,1687.98 2626.63,1686.26" disallow="bicycle tram rail_urban rail rail_electric rail_fast ship">
        <param key="ref" value="A36"/>
    </edge>
    <edge id="-133875188#1" from="1473154628" to="13912223" priority="13" type="highway.trunk" numLanes="1" speed="13.41" disallow="bicycle tram rail_urban rail rail_electric rail_fast ship">
        <param key="ref" value="A36"/>
    </edge>
    <edge id="-133875197#0" from="3430522756" to="404587917" priority="12" type="highway.primary" numLanes="1" speed="8.94" disallow="tram rail_urban rail rail_electric rail_fast ship"/>
    <edge id="-133875197#1" from="cluster_13862090_3430522749_3575008892" to="3430522756" priority="12" type="highway.primary" numLanes="1" speed="8.94" shape="2323.19,452.19 2327.52,456.67 2330.02,461.86" disallow="tram rail_urban rail rail_electric rail_fast ship"/>
    <edge id="-133875223#0" from="126715" to="1473154541" priority="13" type="highway.trunk" numLanes="1" speed="13.41" disallow="pedestrian bicycle tram rail_urban rail rail_electric rail_fast ship">
        <param key="ref" value="A36"/>
    </edge>
    <edge id="-133875223#1" from="cluster_1075355261_246810" to="126715" priority="13" type="highway.trunk" numLanes="1" speed="13.41" shape="1158.35,761.07 1117.91,782.20" disallow="pedestrian bicycle tram rail_urban rail rail_electric rail_fast ship">
        <param key="ref" value="A36"/>
    </edge>
    <edge id="-133875223#10" from="126983" to="3132184498" priority="13" type="highway.trunk" numLanes="1" speed="13.41" disallow="pedestrian bicycle tram rail_urban rail rail_electric rail_fast ship">
        <param key="ref" value="A36"/>
    </edge>
    <edge id="-133875223#11" from="4612941161" to="126983" priority="13" type="highway.trunk" numLanes="1" speed="13.41" disallow="pedestrian bicycle tram rail_urban rail rail_electric rail_fast ship">
        <param key="ref" value="A36"/>
    </edge>
    <edge id="-133875223#12" from="4612941132" to="4612941161" priority="13" type="highway.trunk" numLanes="1" speed="13.41" disallow="pedestrian bicycle tram rail_urban rail rail_electric rail_fast ship">
        <param key="ref" value="A36"/>
    </edge>
    <edge id="-133875223#13" from="2292623048" to="4612941132" priority="13" type="highway.trunk" numLanes="1" speed="13.41" disallow="pedestrian bicycle tram rail_urban rail rail_electric rail_fast ship">
        <param key="ref" value="A36"/>
    </edge>
    <edge id="-133875223#14" from="4612941130" to="2292623048" priority="13" type="highway.trunk" numLanes="1" speed="13.41" disallow="pedestrian bicycle tram rail_urban rail rail_electric rail_fast ship">
        <param key="ref" value="A36"/>
    </edge>
    <edge id="-133875223#15" from="2292623062" to="4612941130" priority="13" type="highway.trunk" numLanes="1" speed="13.41" disallow="pedestrian bicycle tram rail_urban rail rail_electric rail_fast ship">
        <param key="ref" value="A36"/>
    </edge>
    <edge id="-133875223#16" from="380033" to="2292623062" priority="13" type="highway.trunk" numLanes="1" speed="13.41" disallow="pedestrian bicycle tram rail_urban rail rail_electric rail_fast ship">
        <param key="ref" value="A36"/>
    </edge>
    <edge id="-133875223#17" from="25723446" to="380033" priority="13" type="highway.trunk" numLanes="1" speed="13.41" disallow="pedestrian bicycle tram rail_urban rail rail_electric rail_fast ship">
        <param key="ref" value="A36"/>
    </edge>
    <edge id="-133875223#18" from="1126315882" to="25723446" priority="13" type="highway.trunk" numLanes="1" speed="13.41" disallow="pedestrian bicycle tram rail_urban rail rail_electric rail_fast ship">
        <param key="ref" value="A36"/>
    </edge>
    <edge id="-133875223#19" from="cluster_126985_13861824_442584046" to="1126315882" priority="13" type="highway.trunk" numLanes="1" speed="13.41" shape="1730.19,560.67 1707.24,569.24" disallow="pedestrian bicycle tram rail_urban rail rail_electric rail_fast ship">
        <param key="ref" value="A36"/>
    </edge>
    <edge id="-133875223#3" from="6875949809" to="cluster_1075355261_246810" priority="13" type="highway.trunk" numLanes="1" speed="13.41" shape="1175.75,752.90 1160.67,759.84" disallow="pedestrian bicycle tram rail_urban rail rail_electric rail_fast ship">
        <param key="ref" value="A36"/>
    </edge>
    <edge id="-133875223#4" from="cluster_246631_472503581" to="6875949809" priority="13" type="highway.trunk" numLanes="1" speed="13.41" shape="1259.04,707.25 1224.70,727.33 1175.75,752.90" disallow="pedestrian bicycle tram rail_urban rail rail_electric rail_fast ship">
        <param key="ref" value="A36"/>
    </edge>
    <edge id="-133875223#6" from="4613017693" to="cluster_246631_472503581" priority="13" type="highway.trunk" numLanes="1" speed="13.41" shape="1351.61,675.23 1321.29,679.86 1296.31,688.32 1278.73,696.32" disallow="pedestrian bicycle tram rail_urban rail rail_electric rail_fast ship">
        <param key="ref" value="A36"/>
    </edge>
    <edge id="-133875223#7" from="126717" to="4613017693" priority="13" type="highway.trunk" numLanes="1" speed="13.41" disallow="pedestrian bicycle tram rail_urban rail rail_electric rail_fast ship">
        <param key="ref" value="A36"/>
    </edge>
    <edge id="-133875223#8" from="4613016160" to="126717" priority="13" type="highway.trunk" numLanes="1" speed="13.41" disallow="pedestrian bicycle tram rail_urban rail rail_electric rail_fast ship">
        <param key="ref" value="A36"/>
    </edge>
    <edge id="-133875223#9" from="3132184498" to="4613016160" priority="13" type="highway.trunk" numLanes="1" speed="13.41" shape="1489.46,652.21 1485.03,653.43 1477.34,654.99" disallow="pedestrian bicycle tram rail_urban rail rail_electric rail_fast ship">
        <param key="ref" value="A36"/>
    </edge>
    <edge id="-133875226#0" from="8712603037" to="1473154572" priority="13" type="highway.trunk" numLanes="1" speed="13.41" disallow="pedestrian bicycle tram rail_urban rail rail_electric rail_fast ship">
        <param key="ref" value="A36"/>
    </edge>
    <edge id="-133875226#1" from="8712603033" to="8712603037" priority="13" type="highway.trunk" numLanes="1" speed="13.41" disallow="pedestrian bicycle tram rail_urban rail rail_electric rail_fast ship">
        <param key="ref" value="A36"/>
    </edge>
    <edge id="-133875226#2" from="570812" to="8712603033" priority="13" type="highway.trunk" numLanes="1" speed="13.41" disallow="pedestrian bicycle tram rail_urban rail rail_electric rail_fast ship">
        <param key="ref" value="A36"/>
    </edge>
    <edge id="-133875229" from="13866106" to="1473154581" priority="13" type="highway.trunk" numLanes="1" speed="13.41" disallow="pedestrian bicycle tram rail_urban rail rail_electric rail_fast ship">
        <param key="ref" value="A36"/>
    </edge>
    <edge id="-133875235#0" from="1473154592" to="126720" priority="13" type="highway.trunk" numLanes="2" speed="13.41" disallow="pedestrian bicycle tram rail_urban rail rail_electric rail_fast ship">
        <param key="ref" value="A36"/>
    </edge>
    <edge id="-133875235#1" from="13862207" to="1473154592" priority="13" type="highway.trunk" numLanes="2" speed="13.41" shape="307.71,1058.43 326.11,1062.10 342.89,1062.11" disallow="pedestrian bicycle tram rail_urban rail rail_electric rail_fast ship">
        <param key="ref" value="A36"/>
    </edge>
    <edge id="-133875236#0" from="1413700623" to="13866106" priority="13" type="highway.trunk" numLanes="1" speed="13.41" disallow="pedestrian bicycle tram rail_urban rail rail_electric rail_fast ship">
        <param key="ref" value="A36"/>
    </edge>
    <edge id="-133875236#1" from="13866088" to="1413700623" priority="13" type="highway.trunk" numLanes="1" speed="13.41" disallow="pedestrian bicycle tram rail_urban rail rail_electric rail_fast ship">
        <param key="ref" value="A36"/>
    </edge>
    <edge id="-133875236#2" from="6301063439" to="13866088" priority="13" type="highway.trunk" numLanes="1" speed="13.41" disallow="pedestrian bicycle tram rail_urban rail rail_electric rail_fast ship">
        <param key="ref" value="A36"/>
    </edge>
    <edge id="-133875236#3" from="1473154582" to="6301063439" priority="13" type="highway.trunk" numLanes="1" speed="13.41" disallow="pedestrian bicycle tram rail_urban rail rail_electric rail_fast ship">
        <param key="ref" value="A36"/>
    </edge>
    <edge id="-133875237#0" from="6096749421" to="13862207" priority="13" type="highway.trunk" numLanes="1" speed="13.41" shape="251.31,1041.57 257.81,1044.00 267.00,1047.62 271.87,1049.49 291.62,1055.31 307.71,1058.43" disallow="pedestrian bicycle tram rail_urban rail rail_electric rail_fast ship">
        <param key="ref" value="A36"/>
    </edge>
    <edge id="-133875237#1" from="6984939188" to="6096749421" priority="13" type="highway.trunk" numLanes="1" speed="13.41" shape="191.15,1020.16 229.87,1033.92 251.31,1041.57" disallow="pedestrian bicycle tram rail_urban rail rail_electric rail_fast ship">
        <param key="ref" value="A36"/>
    </edge>
    <edge id="-133875237#2" from="26470617" to="6984939188" priority="13" type="highway.trunk" numLanes="1" speed="13.41" shape="0.00,940.23 29.15,956.40 62.18,972.24 119.43,994.70 144.14,1003.45 156.60,1007.88 191.15,1020.16" disallow="pedestrian bicycle tram rail_urban rail rail_electric rail_fast ship">
        <param key="ref" value="A36"/>
    </edge>
    <edge id="-133875245#0" from="6301063431" to="1473154582" priority="13" type="highway.trunk" numLanes="1" speed="13.41" disallow="pedestrian bicycle tram rail_urban rail rail_electric rail_fast ship">
        <param key="ref" value="A36"/>
    </edge>
    <edge id="-133875245#1" from="6301063443" to="6301063431" priority="13" type="highway.trunk" numLanes="1" speed="13.41" shape="442.18,1043.08 504.01,1030.38 557.08,1018.29" disallow="pedestrian bicycle tram rail_urban rail rail_electric rail_fast ship">
        <param key="ref" value="A36"/>
    </edge>
    <edge id="-133875245#2" from="1473154587" to="6301063443" priority="13" type="highway.trunk" numLanes="1" speed="13.41" disallow="pedestrian bicycle tram rail_urban rail rail_electric rail_fast ship">
        <param key="ref" value="A36"/>
    </edge>
    <edge id="-133875245#3" from="1473154588" to="1473154587" priority="13" type="highway.trunk" numLanes="1" speed="13.41" disallow="pedestrian bicycle tram rail_urban rail rail_electric rail_fast ship">
        <param key="ref" value="A36"/>
    </edge>
    <edge id="-133875245#4" from="1473154590" to="1473154588" priority="13" type="highway.trunk" numLanes="1" speed="13.41" disallow="pedestrian bicycle tram rail_urban rail rail_electric rail_fast ship">
        <param key="ref" value="A36"/>
    </edge>
    <edge id="-133875245#5" from="126720" to="1473154590" priority="13" type="highway.trunk" numLanes="1" speed="13.41" disallow="pedestrian bicycle tram rail_urban rail rail_electric rail_fast ship">
        <param key="ref" value="A36"/>
    </edge>
    <edge id="-133875249#0" from="1473154576" to="570812" priority="13" type="highway.trunk" numLanes="2" speed="13.41" disallow="pedestrian bicycle tram rail_urban rail rail_electric rail_fast ship">
        <param key="ref" value="A36"/>
    </edge>
    <edge id="-133875249#1" from="1473154579" to="1473154576" priority="13" type="highway.trunk" numLanes="2" speed="13.41" shape="838.56,961.09 840.95,960.50 845.55,959.64" disallow="pedestrian bicycle tram rail_urban rail rail_electric rail_fast ship">
        <param key="ref" value="A36"/>
    </edge>
    <edge id="-133875249#2" from="126714" to="1473154579" priority="13" type="highway.trunk" numLanes="2" speed="13.41" disallow="pedestrian bicycle tram rail_urban rail rail_electric rail_fast ship">
        <param key="ref" value="A36"/>
    </edge>
    <edge id="-133875260#0" from="3771222044" to="1473154591" priority="13" type="highway.trunk" numLanes="1" speed="13.41" disallow="bicycle tram rail_urban rail rail_electric rail_fast ship">
        <param key="ref" value="A36"/>
    </edge>
    <edge id="-133875260#1" from="9018195991" to="3771222044" priority="13" type="highway.trunk" numLanes="1" speed="13.41" disallow="bicycle tram rail_urban rail rail_electric rail_fast ship">
        <param key="ref" value="A36"/>
    </edge>
    <edge id="-133875260#2" from="9018195982" to="9018195991" priority="13" type="highway.trunk" numLanes="1" speed="13.41" disallow="bicycle tram rail_urban rail rail_electric rail_fast ship">
        <param key="ref" value="A36"/>
    </edge>
    <edge id="-133875260#3" from="617142403" to="9018195982" priority="13" type="highway.trunk" numLanes="1" speed="13.41" disallow="bicycle tram rail_urban rail rail_electric rail_fast ship">
        <param key="ref" value="A36"/>
    </edge>
    <edge id="-133875261#0" from="687898568" to="1473154548" priority="13" type="highway.trunk" numLanes="1" speed="13.41" disallow="pedestrian bicycle tram rail_urban rail rail_electric rail_fast ship">
        <param key="ref" value="A36"/>
    </edge>
    <edge id="-133875261#1" from="279482" to="687898568" priority="13" type="highway.trunk" numLanes="1" speed="13.41" shape="2451.72,940.22 2451.77,938.05 2452.04,926.42" disallow="pedestrian bicycle tram rail_urban rail rail_electric rail_fast ship">
        <param key="ref" value="A36"/>
    </edge>
    <edge id="-133875262#0" from="687898570" to="279482" priority="13" type="highway.trunk" numLanes="2" speed="13.41" disallow="bicycle tram rail_urban rail rail_electric rail_fast ship">
        <param key="ref" value="A36"/>
    </edge>
    <edge id="-133875262#1" from="1473154591" to="687898570" priority="13" type="highway.trunk" numLanes="2" speed="13.41" disallow="bicycle tram rail_urban rail rail_electric rail_fast ship">
        <param key="ref" value="A36"/>
    </edge>
    <edge id="-141841564#0" from="7151563768" to="7994798366" priority="3" type="highway.residential" numLanes="1" speed="13.89" disallow="tram rail_urban rail rail_electric rail_fast ship"/>
    <edge id="-141841564#1" from="4055397813" to="7151563768" priority="3" type="highway.residential" numLanes="1" speed="13.89" disallow="tram rail_urban rail rail_electric rail_fast ship"/>
    <edge id="-141841564#10" from="818734" to="1552607734" priority="3" type="highway.residential" numLanes="1" speed="13.89" disallow="tram rail_urban rail rail_electric rail_fast ship"/>
    <edge id="-141841564#11" from="293792170" to="818734" priority="3" type="highway.residential" numLanes="1" speed="13.89" disallow="tram rail_urban rail rail_electric rail_fast ship"/>
    <edge id="-141841564#2" from="2730890563" to="4055397813" priority="3" type="highway.residential" numLanes="1" speed="13.89" disallow="tram rail_urban rail rail_electric rail_fast ship"/>
    <edge id="-141841564#3" from="1662876654" to="2730890563" priority="3" type="highway.residential" numLanes="1" speed="13.89" disallow="tram rail_urban rail rail_electric rail_fast ship"/>
    <edge id="-141841564#4" from="1662876618" to="1662876654" priority="3" type="highway.residential" numLanes="1" speed="13.89" disallow="tram rail_urban rail rail_electric rail_fast ship"/>
    <edge id="-141841564#5" from="1552607806" to="1662876618" priority="3" type="highway.residential" numLanes="1" speed="13.89" disallow="tram rail_urban rail rail_electric rail_fast ship"/>
    <edge id="-141841564#6" from="4058166352" to="1552607806" priority="3" type="highway.residential" numLanes="1" speed="13.89" disallow="tram rail_urban rail rail_electric rail_fast ship"/>
    <edge id="-141841564#7" from="1552607741" to="4058166352" priority="3" type="highway.residential" numLanes="1" speed="13.89" shape="903.35,1026.28 901.54,1037.16 900.21,1042.52 897.78,1047.92 894.21,1052.72 889.74,1056.23 884.27,1058.65" disallow="tram rail_urban rail rail_electric rail_fast ship"/>
    <edge id="-141841564#8" from="6623054189" to="1552607741" priority="3" type="highway.residential" numLanes="1" speed="13.89" shape="906.74,1014.14 904.72,1020.46 903.35,1026.28" disallow="tram rail_urban rail rail_electric rail_fast ship"/>
    <edge id="-141841564#9" from="1552607734" to="6623054189" priority="3" type="highway.residential" numLanes="1" speed="13.89" shape="923.86,993.36 914.88,1003.01 908.93,1010.37 906.74,1014.14" disallow="tram rail_urban rail rail_electric rail_fast ship"/>
    <edge id="-159603320#0" from="8583421455" to="363433" priority="3" type="highway.residential" numLanes="1" speed="13.89" shape="803.96,503.39 838.34,503.15 848.37,504.63" disallow="tram rail_urban rail rail_electric rail_fast ship"/>
    <edge id="-159603320#1" from="13867054" to="8583421455" priority="3" type="highway.residential" numLanes="1" speed="13.89" shape="707.23,502.35 723.81,503.95 803.96,503.39" disallow="tram rail_urban rail rail_electric rail_fast ship"/>
    <edge id="-159603320#2" from="13867053" to="13867054" priority="3" type="highway.residential" numLanes="1" speed="13.89" disallow="tram rail_urban rail rail_electric rail_fast ship"/>
    <edge id="-159603320#3" from="13867052" to="13867053" priority="3" type="highway.residential" numLanes="1" speed="13.89" shape="637.27,471.72 669.25,494.18 674.40,497.11 682.28,498.99" disallow="tram rail_urban rail rail_electric rail_fast ship"/>
    <edge id="-159603320#4" from="1742777069" to="13867052" priority="3" type="highway.residential" numLanes="1" speed="13.89" disallow="tram rail_urban rail rail_electric rail_fast ship"/>
    <edge id="-159603320#5" from="1717097630" to="1742777069" priority="3" type="highway.residential" numLanes="1" speed="13.89" disallow="tram rail_urban rail rail_electric rail_fast ship"/>
    <edge id="-159603320#6" from="14563977" to="1717097630" priority="3" type="highway.residential" numLanes="1" speed="13.89" disallow="tram rail_urban rail rail_electric rail_fast ship"/>
    <edge id="-159603320#7" from="14563984" to="14563977" priority="3" type="highway.residential" numLanes="1" speed="13.89" shape="575.23,416.36 578.53,420.69 601.82,441.24" disallow="tram rail_urban rail rail_electric rail_fast ship"/>
    <edge id="-164650608" from="7994798366" to="1762601732" priority="3" type="highway.residential" numLanes="1" speed="13.89" disallow="tram rail_urban rail rail_electric rail_fast ship"/>
    <edge id="-167257#0" from="1075397406" to="257159" priority="12" type="highway.primary" numLanes="2" speed="13.41" disallow="tram rail_urban rail rail_electric rail_fast ship">
        <param key="ref" value="A367"/>
    </edge>
    <edge id="-167257#1" from="1412174336" to="1075397406" priority="12" type="highway.primary" numLanes="2" speed="13.41" disallow="tram rail_urban rail rail_electric rail_fast ship">
        <param key="ref" value="A367"/>
    </edge>
    <edge id="-167257#2" from="14718747" to="1412174336" priority="12" type="highway.primary" numLanes="2" speed="13.41" disallow="tram rail_urban rail rail_electric rail_fast ship">
        <param key="ref" value="A367"/>
    </edge>
    <edge id="-175773133" from="13804921" to="13804995" priority="3" type="highway.residential" numLanes="1" speed="8.94" disallow="tram rail_urban rail rail_electric rail_fast ship"/>
    <edge id="-180869463#0" from="14560090" to="126714" priority="13" type="highway.trunk" numLanes="2" speed="13.41" disallow="pedestrian bicycle tram rail_urban rail rail_electric rail_fast ship">
        <param key="ref" value="A36"/>
    </edge>
    <edge id="-180869463#1" from="1473154581" to="14560090" priority="13" type="highway.trunk" numLanes="2" speed="13.41" disallow="pedestrian bicycle tram rail_urban rail rail_electric rail_fast ship">
        <param key="ref" value="A36"/>
    </edge>
    <edge id="-188053689" from="1986790389" to="1986779981" priority="4" type="highway.unclassified" numLanes="1" speed="13.89" disallow="tram rail_urban rail rail_electric rail_fast ship"/>
    <edge id="-192668647" from="406554001" to="469370419" priority="13" type="highway.trunk" numLanes="1" speed="13.41" disallow="bicycle tram rail_urban rail rail_electric rail_fast ship">
        <param key="ref" value="A36"/>
    </edge>
    <edge id="-192668650#1" from="469370423" to="cluster_1070737786_2032089847_2032089850_3236294829_506370638" priority="12" type="highway.primary" numLanes="2" speed="13.41" shape="2024.00,1953.59 2053.80,1966.46 2057.09,1967.63" disallow="tram rail_urban rail rail_electric rail_fast ship">
        <param key="ref" value="A4"/>
    </edge>