<?xml version="1.0" encoding="UTF-8"?>

<!-- generated on 2022-04-21 11:14:56 by Eclipse SUMO netconvert Version 1.10.0
<configuration xmlns:xsi="http://www.w3.org/2001/XMLSchema-instance" xsi:noNamespaceSchemaLocation="http://sumo.dlr.de/xsd/netconvertConfiguration.xsd">

    <input>
        <sumo-net-file value="bath3.net.xml"/>
    </input>

    <output>
        <plain-output-prefix value="bath3"/>
    </output>

    <processing>
        <geometry.min-radius.fix.railways value="false"/>
        <geometry.max-grade.fix value="false"/>
        <offset.disable-normalization value="true"/>
        <roundabouts.guess value="false"/>
        <lefthand value="true"/>
    </processing>

    <junctions>
        <no-turnarounds value="true"/>
        <junctions.corner-detail value="5"/>
        <junctions.limit-turn-speed value="5.5"/>
        <rectangular-lane-cut value="false"/>
    </junctions>

    <pedestrian>
        <walkingareas value="false"/>
    </pedestrian>

    <report>
        <aggregate-warnings value="5"/>
    </report>

</configuration>
-->

<connections version="1.9" xmlns:xsi="http://www.w3.org/2001/XMLSchema-instance" xsi:noNamespaceSchemaLocation="http://sumo.dlr.de/xsd/connections_file.xsd">
    <connection from="-1040746855" to="-3024962" fromLane="0" toLane="0"/>

    <connection from="-118046504#0" to="118046504#0" fromLane="0" toLane="0"/>

    <connection from="-118046504#1" to="-61409020" fromLane="0" toLane="0"/>
    <connection from="-118046504#1" to="-118046504#0" fromLane="0" toLane="0"/>
    <connection from="-118046504#1" to="118046504#1" fromLane="0" toLane="0"/>

    <connection from="-124536801#0" to="-127654225#1" fromLane="0" toLane="0"/>
    <connection from="-124536801#0" to="-4235508#1" fromLane="0" toLane="0"/>
    <connection from="-124536801#0" to="127654225#3" fromLane="0" toLane="0"/>
    <connection from="-124536801#0" to="124536801#0" fromLane="0" toLane="0"/>

    <connection from="-124536801#1" to="-124536801#0" fromLane="0" toLane="0"/>

    <connection from="-124536801#2" to="-124536801#1" fromLane="0" toLane="0"/>

    <connection from="-127654225#0" to="127654225#0" fromLane="0" toLane="0"/>

    <connection from="-127654225#1" to="-127654225#0" fromLane="0" toLane="0"/>

    <connection from="-127654225#10" to="-127654225#9" fromLane="0" toLane="0"/>
    <connection from="-127654225#10" to="2955959#0" fromLane="0" toLane="0"/>
    <connection from="-127654225#10" to="127654225#10" fromLane="0" toLane="0"/>

    <connection from="-127654225#11" to="-127654225#10" fromLane="0" toLane="0"/>
    <connection from="-127654225#11" to="-40684594#1" fromLane="0" toLane="0"/>
    <connection from="-127654225#11" to="127654225#11" fromLane="0" toLane="0"/>

    <connection from="-127654225#12" to="-127654225#11" fromLane="0" toLane="0"/>

    <connection from="-127654225#14" to="-3189451#11" fromLane="0" toLane="0"/>
    <connection from="-127654225#14" to="-127654225#12" fromLane="0" toLane="0"/>
    <connection from="-127654225#14" to="2955277#0" fromLane="0" toLane="0"/>
    <connection from="-127654225#14" to="127654225#14" fromLane="0" toLane="0"/>

    <connection from="-127654225#15" to="-3120966#4" fromLane="0" toLane="0"/>
    <connection from="-127654225#15" to="-127654225#14" fromLane="0" toLane="0"/>
    <connection from="-127654225#15" to="127654225#15" fromLane="0" toLane="0"/>

    <connection from="-127654225#16" to="3189452#0" fromLane="0" toLane="0"/>
    <connection from="-127654225#16" to="-127654225#15" fromLane="0" toLane="0"/>
    <connection from="-127654225#16" to="127654225#16" fromLane="0" toLane="0"/>

    <connection from="-127654225#17" to="-127654225#16" fromLane="0" toLane="0"/>

    <connection from="-127654225#18" to="-127654225#17" fromLane="0" toLane="0"/>

    <connection from="-127654225#19" to="-127654225#18" fromLane="0" toLane="0"/>

    <connection from="-127654225#3" to="124536801#0" fromLane="0" toLane="0"/>
    <connection from="-127654225#3" to="-127654225#1" fromLane="0" toLane="0"/>
    <connection from="-127654225#3" to="-4235508#1" fromLane="0" toLane="0"/>
    <connection from="-127654225#3" to="127654225#3" fromLane="0" toLane="0"/>

    <connection from="-127654225#4" to="-127654225#3" fromLane="0" toLane="0"/>

    <connection from="-127654225#5" to="-127654225#4" fromLane="0" toLane="0"/>

    <connection from="-127654225#6" to="-127654225#5" fromLane="0" toLane="0"/>

    <connection from="-127654225#7" to="-127654225#6" fromLane="0" toLane="0"/>

    <connection from="-127654225#8" to="-3196821#3" fromLane="0" toLane="0"/>
    <connection from="-127654225#8" to="-127654225#7" fromLane="0" toLane="0"/>
    <connection from="-127654225#8" to="127654225#8" fromLane="0" toLane="0"/>

    <connection from="-127654225#9" to="-127654225#8" fromLane="0" toLane="0"/>
    <connection from="-127654225#9" to="4479452#0" fromLane="0" toLane="0"/>
    <connection from="-127654225#9" to="127654225#9" fromLane="0" toLane="0"/>

    <connection from="-133154160#0" to="3057904#0" fromLane="0" toLane="0"/>
    <connection from="-133154160#0" to="-3057915" fromLane="0" toLane="0"/>
    <connection from="-133154160#0" to="133154160#0" fromLane="0" toLane="0"/>

    <connection from="-133154160#1" to="2958862#0" fromLane="0" toLane="0"/>
    <connection from="-133154160#1" to="-133154160#0" fromLane="0" toLane="0"/>
    <connection from="-133154160#1" to="133154160#1" fromLane="0" toLane="0"/>

    <connection from="-133154160#2" to="-133154160#1" fromLane="0" toLane="0"/>

    <connection from="-133154160#3" to="-133154160#2" fromLane="0" toLane="0"/>

    <connection from="-133154160#4" to="2958844" fromLane="0" toLane="0"/>
    <connection from="-133154160#4" to="-133154160#3" fromLane="0" toLane="0"/>
    <connection from="-133154160#4" to="133154160#4" fromLane="0" toLane="0"/>

    <connection from="-133875181#0" to="-55290805" fromLane="0" toLane="0"/>
    <connection from="-133875181#0" to="133875181#0" fromLane="0" toLane="0"/>

    <connection from="-133875181#1" to="-133875181#0" fromLane="0" toLane="0"/>

    <connection from="-133875181#2" to="-133875181#1" fromLane="0" toLane="0"/>

    <connection from="-133875188#0" to="133875188#0" fromLane="0" toLane="0"/>

    <connection from="-133875188#1" to="2959350#0" fromLane="0" toLane="0"/>
    <connection from="-133875188#1" to="-133875188#0" fromLane="0" toLane="0"/>
    <connection from="-133875188#1" to="133875188#1" fromLane="0" toLane="0"/>

    <connection from="-133875197#0" to="-34724287#1" fromLane="0" toLane="0"/>

    <connection from="-133875197#1" to="-133875197#0" fromLane="0" toLane="0"/>

    <connection from="-133875223#0" to="-4357619" fromLane="0" toLane="0"/>
    <connection from="-133875223#0" to="-4357619" fromLane="0" toLane="1"/>

    <connection from="-133875223#1" to="4354013#0" fromLane="0" toLane="0"/>
    <connection from="-133875223#1" to="-133875223#0" fromLane="0" toLane="0"/>
    <connection from="-133875223#1" to="133875223#1" fromLane="0" toLane="0"/>

    <connection from="-133875223#10" to="-133875223#9" fromLane="0" toLane="0"/>

    <connection from="-133875223#11" to="-2520#3" fromLane="0" toLane="0"/>
    <connection from="-133875223#11" to="-133875223#10" fromLane="0" toLane="0"/>
    <connection from="-133875223#11" to="133875223#11" fromLane="0" toLane="0"/>

    <connection from="-133875223#12" to="-133875223#11" fromLane="0" toLane="0"/>

    <connection from="-133875223#13" to="-133875223#12" fromLane="0" toLane="0"/>

    <connection from="-133875223#14" to="-133875223#13" fromLane="0" toLane="0"/>

    <connection from="-133875223#15" to="-133875223#14" fromLane="0" toLane="0"/>

    <connection from="-133875223#16" to="-133875223#15" fromLane="0" toLane="0"/>

    <connection from="-133875223#17" to="-2544#2" fromLane="0" toLane="0"/>
    <connection from="-133875223#17" to="-133875223#16" fromLane="0" toLane="0"/>
    <connection from="-133875223#17" to="133875223#17" fromLane="0" toLane="0"/>

    <connection from="-133875223#18" to="-133875223#17" fromLane="0" toLane="0"/>

    <connection from="-133875223#19" to="-133875223#18" fromLane="0" toLane="0"/>

    <connection from="-133875223#3" to="-133875223#1" fromLane="0" toLane="0"/>
    <connection from="-133875223#3" to="4354018" fromLane="0" toLane="0"/>
    <connection from="-133875223#3" to="133875223#3" fromLane="0" toLane="0"/>

    <connection from="-133875223#4" to="-133875223#3" fromLane="0" toLane="0"/>

    <connection from="-133875223#6" to="-3403171#1" fromLane="0" toLane="0"/>
    <connection from="-133875223#6" to="-133875223#4" fromLane="0" toLane="0"/>
    <connection from="-133875223#6" to="4479202#0" fromLane="0" toLane="0"/>
    <connection from="-133875223#6" to="133875223#6" fromLane="0" toLane="0"/>

    <connection from="-133875223#7" to="-133875223#6" fromLane="0" toLane="0"/>

    <connection from="-133875223#8" to="-133875223#7" fromLane="0" toLane="0"/>

    <connection from="-133875223#9" to="-133875223#8" fromLane="0" toLane="0"/>

    <connection from="-133875226#0" to="-3381569#3" fromLane="0" toLane="0"/>
    <connection from="-133875226#0" to="-3381569#3" fromLane="0" toLane="1"/>

    <connection from="-133875226#1" to="-133875226#0" fromLane="0" toLane="0"/>
    <connection from="-133875226#1" to="940770422#0" fromLane="0" toLane="0"/>
    <connection from="-133875226#1" to="133875226#1" fromLane="0" toLane="1"/>

    <connection from="-133875226#2" to="-133875226#1" fromLane="0" toLane="0"/>

    <connection from="-133875229" to="-180869463#1" fromLane="0" toLane="0"/>
    <connection from="-133875229" to="-180869463#1" fromLane="0" toLane="1"/>

    <connection from="-133875235#0" to="-404611919#5" fromLane="0" toLane="0"/>
    <connection from="-133875235#0" to="-133875245#5" fromLane="0" toLane="0"/>
    <connection from="-133875235#0" to="3057563#0" fromLane="1" toLane="0"/>
    <connection from="-133875235#0" to="133875235#0" fromLane="1" toLane="0"/>

    <connection from="-133875235#1" to="-133875235#0" fromLane="0" toLane="0"/>
    <connection from="-133875235#1" to="-133875235#0" fromLane="1" toLane="1"/>

    <connection from="-133875236#0" to="746445108" fromLane="0" toLane="0"/>
    <connection from="-133875236#0" to="-133875229" fromLane="0" toLane="0"/>
    <connection from="-133875236#0" to="133875236#0" fromLane="0" toLane="0"/>

    <connection from="-133875236#1" to="-133875236#0" fromLane="0" toLane="0"/>

    <connection from="-133875236#2" to="-133875236#1" fromLane="0" toLane="0"/>
    <connection from="-133875236#2" to="-3057445#2" fromLane="0" toLane="0"/>
    <connection from="-133875236#2" to="133875236#2" fromLane="0" toLane="0"/>

    <connection from="-133875236#3" to="-133875236#2" fromLane="0" toLane="0"/>

    <connection from="-133875237#0" to="-133875235#1" fromLane="0" toLane="0"/>
    <connection from="-133875237#0" to="-133875235#1" fromLane="0" toLane="1"/>

    <connection from="-133875237#1" to="-133875237#0" fromLane="0" toLane="0"/>

    <connection from="-133875237#2" to="-133875237#1" fromLane="0" toLane="0"/>

    <connection from="-133875245#0" to="-133875236#3" fromLane="0" toLane="0"/>

    <connection from="-133875245#1" to="-133875245#0" fromLane="0" toLane="0"/>

    <connection from="-133875245#2" to="-133875245#1" fromLane="0" toLane="0"/>

    <connection from="-133875245#3" to="-133875245#2" fromLane="0" toLane="0"/>
    <connection from="-133875245#3" to="133875269" fromLane="0" toLane="0"/>
    <connection from="-133875245#3" to="133875245#3" fromLane="0" toLane="1"/>

    <connection from="-133875245#4" to="-133875245#3" fromLane="0" toLane="0"/>
    <connection from="-133875245#4" to="133875245#4" fromLane="0" toLane="1"/>

    <connection from="-133875245#5" to="-133875245#4" fromLane="0" toLane="0"/>

    <connection from="-133875249#0" to="-133875226#2" fromLane="0" toLane="0"/>
    <connection from="-133875249#0" to="2955747#0" fromLane="1" toLane="0"/>
    <connection from="-133875249#0" to="133875249#0" fromLane="1" toLane="0"/>

    <connection from="-133875249#1" to="-133875249#0" fromLane="0" toLane="0"/>
    <connection from="-133875249#1" to="-133875249#0" fromLane="1" toLane="1"/>

    <connection from="-133875249#2" to="-133875249#1" fromLane="0" toLane="0"/>
    <connection from="-133875249#2" to="-133875249#1" fromLane="1" toLane="1"/>

    <connection from="-133875260#0" to="-133875262#1" fromLane="0" toLane="0"/>
    <connection from="-133875260#0" to="-133875262#1" fromLane="0" toLane="1"/>

    <connection from="-133875260#1" to="-133875260#0" fromLane="0" toLane="0"/>

    <connection from="-133875260#2" to="-133875260#1" fromLane="0" toLane="0"/>

    <connection from="-133875260#3" to="-133875260#2" fromLane="0" toLane="0"/>

    <connection from="-133875261#0" to="-3025859#8" fromLane="0" toLane="0"/>

    <connection from="-133875261#1" to="-133875261#0" fromLane="0" toLane="0"/>

    <connection from="-133875262#0" to="-133875261#1" fromLane="0" toLane="0"/>
    <connection from="-133875262#0" to="-3025839#7" fromLane="1" toLane="0"/>
    <connection from="-133875262#0" to="133875262#0" fromLane="1" toLane="0"/>

    <connection from="-133875262#1" to="-133875262#0" fromLane="0" toLane="0"/>
    <connection from="-133875262#1" to="-133875262#0" fromLane="1" toLane="1"/>

    <connection from="-141841564#0" to="-164650608" fromLane="0" toLane="0"/>

    <connection from="-141841564#1" to="-141841564#0" fromLane="0" toLane="0"/>

    <connection from="-141841564#10" to="-141841564#9" fromLane="0" toLane="0"/>

    <connection from="-141841564#11" to="-141841564#10" fromLane="0" toLane="0"/>

    <connection from="-141841564#2" to="-141841564#1" fromLane="0" toLane="0"/>
    <connection from="-141841564#2" to="403161281" fromLane="0" toLane="0"/>
    <connection from="-141841564#2" to="141841564#2" fromLane="0" toLane="0"/>

    <connection from="-141841564#3" to="-141841564#2" fromLane="0" toLane="0"/>
    <connection from="-141841564#3" to="267651978" fromLane="0" toLane="0"/>
    <connection from="-141841564#3" to="141841564#3" fromLane="0" toLane="0"/>

    <connection from="-141841564#4" to="-141841564#3" fromLane="0" toLane="0"/>

    <connection from="-141841564#5" to="-141841564#4" fromLane="0" toLane="0"/>

    <connection from="-141841564#6" to="-141841564#5" fromLane="0" toLane="0"/>

    <connection from="-141841564#7" to="-141841564#6" fromLane="0" toLane="0"/>
    <connection from="-141841564#7" to="-5191097#3" fromLane="0" toLane="0"/>
    <connection from="-141841564#7" to="141841564#7" fromLane="0" toLane="0"/>

    <connection from="-141841564#8" to="-141841564#7" fromLane="0" toLane="0"/>

    <connection from="-141841564#9" to="-141841564#8" fromLane="0" toLane="0"/>

    <connection from="-159603320#0" to="-3057904#0" fromLane="0" toLane="0"/>
    <connection from="-159603320#0" to="3057904#1" fromLane="0" toLane="0"/>
    <connection from="-159603320#0" to="159603320#0" fromLane="0" toLane="0"/>

    <connection from="-159603320#1" to="-159603320#0" fromLane="0" toLane="0"/>

    <connection from="-159603320#2" to="-159603320#1" fromLane="0" toLane="0"/>
    <connection from="-159603320#2" to="159603320#2" fromLane="0" toLane="0"/>

    <connection from="-159603320#3" to="-159603320#2" fromLane="0" toLane="0"/>
    <connection from="-159603320#3" to="2955740#0" fromLane="0" toLane="0"/>
    <connection from="-159603320#3" to="159603320#3" fromLane="0" toLane="0"/>

    <connection from="-159603320#4" to="-159603320#3" fromLane="0" toLane="0"/>
    <connection from="-159603320#4" to="3057901#0" fromLane="0" toLane="0"/>
    <connection from="-159603320#4" to="159603320#4" fromLane="0" toLane="0"/>

    <connection from="-159603320#5" to="-159603320#4" fromLane="0" toLane="0"/>

    <connection from="-159603320#6" to="-159603320#5" fromLane="0" toLane="0"/>

    <connection from="-159603320#7" to="159603097#0" fromLane="0" toLane="0"/>
    <connection from="-159603320#7" to="-159603320#6" fromLane="0" toLane="0"/>
    <connection from="-159603320#7" to="159603320#7" fromLane="0" toLane="0"/>

    <connection from="-164650608" to="35391036#0" fromLane="0" toLane="0"/>
    <connection from="-164650608" to="164650608" fromLane="0" toLane="0"/>

    <connection from="-167257#0" to="8769305" fromLane="0" toLane="0"/>
    <connection from="-167257#0" to="3120967#0" fromLane="0" toLane="0"/>
    <connection from="-167257#0" to="3120967#0" fromLane="1" toLane="1"/>
    <connection from="-167257#0" to="167257#0" fromLane="1" toLane="1"/>

    <connection from="-167257#1" to="-167257#0" fromLane="0" toLane="0"/>
    <connection from="-167257#1" to="-167257#0" fromLane="1" toLane="1"/>

    <connection from="-167257#2" to="-167257#1" fromLane="0" toLane="0"/>
    <connection from="-167257#2" to="-167257#1" fromLane="1" toLane="1"/>
    <connection from="-167257#2" to="167257#2" fromLane="1" toLane="1"/>

    <connection from="-175773133" to="683583893" fromLane="0" toLane="0"/>

    <connection from="-180869463#0" to="-133875249#2" fromLane="0" toLane="0"/>
    <connection from="-180869463#0" to="-133875249#2" fromLane="1" toLane="1"/>
    <connection from="-180869463#0" to="180869463#0" fromLane="1" toLane="0"/>

    <connection from="-180869463#1" to="-180869463#0" fromLane="0" toLane="0"/>
    <connection from="-180869463#1" to="-180869463#0" fromLane="1" toLane="1"/>

    <connection from="-188053689" to="2955307#2" fromLane="0" toLane="0"/>
    <connection from="-188053689" to="-2955307#1" fromLane="0" toLane="0"/>
    <connection from="-188053689" to="188053689" fromLane="0" toLane="0"/>

    <connection from="-192668647" to="39183706" fromLane="0" toLane="0"/>
    <connection from="-192668647" to="3025519#0" fromLane="0" toLane="0"/>
    <connection from="-192668647" to="192668647" fromLane="0" toLane="0"/>

    <connection from="-192668650#1" to="212#0" fromLane="0" toLane="0"/>
    <connection from="-192668650#1" to="192668649#1" fromLane="1" toLane="0"/>
    <connection from="-192668650#1" to="192668650#1" fromLane="1" toLane="1"/>

    <connection from="-192668650#2" to="-192668650#1" fromLane="0" toLane="0"/>
    <connection from="-192668650#2" to="-192668650#1" fromLane="1" toLane="1"/>
    <connection from="-192668650#2" to="192668650#2" fromLane="1" toLane="1"/>

    <connection from="-192668650#3" to="-192668650#2" fromLane="0" toLane="0"/>
    <connection from="-192668650#3" to="-192668650#2" fromLane="1" toLane="1"/>
    <connection from="-192668650#3" to="2956761" fromLane="1" toLane="0"/>
    <connection from="-192668650#3" to="192668650#3" fromLane="1" toLane="1"/>

    <connection from="-192668650#4" to="-192668650#3" fromLane="0" toLane="0"/>
    <connection from="-192668650#4" to="-192668650#3" fromLane="1" toLane="1"/>

    <connection from="-192668650#5" to="-4235144#4" fromLane="0" toLane="0"/>
    <connection from="-192668650#5" to="-192668650#4" fromLane="0" toLane="0"/>
    <connection from="-192668650#5" to="-192668650#4" fromLane="1" toLane="1"/>
    <connection from="-192668650#5" to="192668650#5" fromLane="1" toLane="1"/>

    <connection from="-192668650#6" to="-192668650#5" fromLane="0" toLane="0"/>
    <connection from="-192668650#6" to="-192668650#5" fromLane="1" toLane="1"/>

    <connection from="-192671933#0" to="-2745#1" fromLane="0" toLane="0"/>
    <connection from="-192671933#0" to="-2745#1" fromLane="0" toLane="1"/>

    <connection from="-192671933#1" to="-192671933#0" fromLane="0" toLane="0"/>

    <connection from="-192674402#0" to="-959553052#4" fromLane="0" toLane="0"/>

    <connection from="-192674402#1" to="-192674402#0" fromLane="0" toLane="0"/>

    <connection from="-192674402#2" to="-3024961" fromLane="0" toLane="0"/>
    <connection from="-192674402#2" to="-192674402#1" fromLane="0" toLane="0"/>
    <connection from="-192674402#2" to="192674402#2" fromLane="0" toLane="1"/>

    <connection from="-192674701" to="-279357279#1" fromLane="0" toLane="0"/>

    <connection from="-197194658" to="-197194660" fromLane="0" toLane="0"/>

    <connection from="-197194660" to="-3609803#2" fromLane="0" toLane="0"/>

    <connection from="-198245314#0" to="-2748#7" fromLane="0" toLane="0"/>
    <connection from="-198245314#0" to="-2748#7" fromLane="1" toLane="1"/>

    <connection from="-198245314#1" to="-198245314#0" fromLane="0" toLane="0"/>
    <connection from="-198245314#1" to="-37777243#4" fromLane="0" toLane="0"/>
    <connection from="-198245314#1" to="198245314#1" fromLane="1" toLane="1"/>

    <connection from="-198245314#2" to="-198245314#1" fromLane="0" toLane="0"/>
    <connection from="-198245314#2" to="-198245314#1" fromLane="1" toLane="1"/>

    <connection from="-198245314#3" to="-198245314#2" fromLane="0" toLane="0"/>
    <connection from="-198245314#3" to="-198245314#2" fromLane="1" toLane="1"/>

    <connection from="-198245314#4" to="-198245314#3" fromLane="0" toLane="0"/>
    <connection from="-198245314#4" to="-198245314#3" fromLane="1" toLane="1"/>

    <connection from="-203240967#0" to="-198245314#4" fromLane="0" toLane="0"/>
    <connection from="-203240967#0" to="-198245314#4" fromLane="1" toLane="1"/>

    <connection from="-203240967#1" to="-203240967#0" fromLane="0" toLane="0"/>
    <connection from="-203240967#1" to="-203240967#0" fromLane="1" toLane="1"/>

    <connection from="-203240967#2" to="-203240967#1" fromLane="0" toLane="0"/>
    <connection from="-203240967#2" to="-203240967#1" fromLane="1" toLane="1"/>

    <connection from="-207644855#3" to="-444272568#7" fromLane="0" toLane="0"/>
    <connection from="-207644855#3" to="-34724285#3" fromLane="0" toLane="1"/>
    <connection from="-207644855#3" to="207644855#3" fromLane="0" toLane="0"/>

    <connection from="-207644855#4" to="-207644855#3" fromLane="0" toLane="0"/>

    <connection from="-207644855#5" to="-207644855#4" fromLane="0" toLane="0"/>

    <connection from="-207644855#6" to="-207644855#5" fromLane="0" toLane="0"/>
    <connection from="-207644855#6" to="241158715" fromLane="0" toLane="0"/>
    <connection from="-207644855#6" to="207644855#6" fromLane="0" toLane="0"/>

    <connection from="-207644855#7" to="4209401" fromLane="0" toLane="0"/>
    <connection from="-207644855#7" to="-207644855#6" fromLane="0" toLane="0"/>
    <connection from="-207644855#7" to="207644855#7" fromLane="0" toLane="0"/>

    <connection from="-209#0" to="-127654225#19" fromLane="0" toLane="0"/>
    <connection from="-209#0" to="-3292445#8" fromLane="0" toLane="0"/>
    <connection from="-209#0" to="-3292445#8" fromLane="1" toLane="1"/>
    <connection from="-209#0" to="209#0" fromLane="1" toLane="1"/>

    <connection from="-209#1" to="-209#0" fromLane="0" toLane="0"/>
    <connection from="-209#1" to="-209#0" fromLane="1" toLane="1"/>

    <connection from="-209#2" to="-209#1" fromLane="0" toLane="0"/>
    <connection from="-209#2" to="-209#1" fromLane="1" toLane="1"/>

    <connection from="-209#3" to="-209#2" fromLane="0" toLane="0"/>
    <connection from="-209#3" to="-209#2" fromLane="1" toLane="1"/>

    <connection from="-210#1" to="-3086264#1" fromLane="0" toLane="0"/>
    <connection from="-210#1" to="3609799#0" fromLane="0" toLane="0"/>
    <connection from="-210#1" to="-55290798#2" fromLane="1" toLane="1"/>
    <connection from="-210#1" to="210#1" fromLane="1" toLane="1"/>

    <connection from="-212#0" to="192668649#1" fromLane="0" toLane="0"/>
    <connection from="-212#0" to="192668650#1" fromLane="0" toLane="0"/>
    <connection from="-212#0" to="192668650#1" fromLane="1" toLane="1"/>
    <connection from="-212#0" to="212#0" fromLane="1" toLane="0"/>

    <connection from="-212#1" to="-212#0" fromLane="0" toLane="0"/>
    <connection from="-212#1" to="-212#0" fromLane="1" toLane="1"/>

    <connection from="-212#2" to="-212#1" fromLane="0" toLane="0"/>
    <connection from="-212#2" to="-212#1" fromLane="1" toLane="1"/>

    <connection from="-223011669#0" to="223011669#0" fromLane="0" toLane="0"/>

    <connection from="-223011669#1" to="-2958844" fromLane="0" toLane="0"/>
    <connection from="-223011669#1" to="-223011669#0" fromLane="0" toLane="0"/>
    <connection from="-223011669#1" to="223011669#1" fromLane="0" toLane="0"/>

    <connection from="-240290973#0" to="3024960#0" fromLane="0" toLane="0"/>
    <connection from="-240290973#0" to="48586336#1" fromLane="0" toLane="1"/>
    <connection from="-240290973#0" to="240290973#0" fromLane="0" toLane="0"/>

    <connection from="-240290973#1" to="-240290973#0" fromLane="0" toLane="0"/>

    <connection from="-241158715" to="207644855#6" fromLane="0" toLane="0"/>
    <connection from="-241158715" to="-207644855#5" fromLane="0" toLane="0"/>
    <connection from="-241158715" to="241158715" fromLane="0" toLane="0"/>

    <connection from="-2520#0" to="2520#0" fromLane="0" toLane="0"/>

    <connection from="-2520#1" to="-2520#0" fromLane="0" toLane="0"/>

    <connection from="-2520#2" to="2544#0" fromLane="0" toLane="0"/>
    <connection from="-2520#2" to="-2520#1" fromLane="0" toLane="0"/>
    <connection from="-2520#2" to="2520#2" fromLane="0" toLane="0"/>

    <connection from="-2520#3" to="-2520#2" fromLane="0" toLane="0"/>

    <connection from="-2524" to="30991997#1" fromLane="0" toLane="0"/>
    <connection from="-2524" to="2524" fromLane="0" toLane="0"/>

    <connection from="-252506895" to="4231695#3" fromLane="0" toLane="0"/>
    <connection from="-252506895" to="-4231695#2" fromLane="0" toLane="0"/>
    <connection from="-252506895" to="252506895" fromLane="0" toLane="0"/>

    <connection from="-2527#0" to="4644987#0" fromLane="0" toLane="0"/>
    <connection from="-2527#0" to="-4227221" fromLane="0" toLane="0"/>
    <connection from="-2527#0" to="2527#0" fromLane="0" toLane="0"/>

    <connection from="-2527#1" to="-2527#0" fromLane="0" toLane="0"/>

    <connection from="-2527#2" to="-2527#1" fromLane="0" toLane="0"/>

    <connection from="-2544#0" to="-2520#1" fromLane="0" toLane="0"/>
    <connection from="-2544#0" to="2520#2" fromLane="0" toLane="0"/>
    <connection from="-2544#0" to="2544#0" fromLane="0" toLane="0"/>

    <connection from="-2544#1" to="-2544#0" fromLane="0" toLane="0"/>

    <connection from="-2544#2" to="-2544#1" fromLane="0" toLane="0"/>

    <connection from="-255720636" to="4226702#0" fromLane="0" toLane="0"/>
    <connection from="-255720636" to="61409020" fromLane="0" toLane="0"/>
    <connection from="-255720636" to="255720636" fromLane="0" toLane="0"/>

    <connection from="-26312537#0" to="26312537#0" fromLane="0" toLane="0"/>

    <connection from="-26312537#1" to="-26312537#0" fromLane="0" toLane="0"/>

    <connection from="-26312537#2" to="-26312537#1" fromLane="0" toLane="0"/>

    <connection from="-26312537#3" to="-26312537#2" fromLane="0" toLane="0"/>
    <connection from="-26312537#3" to="3058153" fromLane="0" toLane="0"/>
    <connection from="-26312537#3" to="26312537#3" fromLane="0" toLane="0"/>

    <connection from="-26312537#4" to="-26312537#3" fromLane="0" toLane="0"/>

    <connection from="-26312557" to="-3058153" fromLane="0" toLane="0"/>

    <connection from="-26637310#0" to="3126773" fromLane="0" toLane="0"/>
    <connection from="-26637310#0" to="26637310#0" fromLane="0" toLane="0"/>

    <connection from="-26637310#1" to="-26637310#0" fromLane="0" toLane="0"/>

    <connection from="-26637310#2" to="-26637310#1" fromLane="0" toLane="0"/>

    <connection from="-26738340#0" to="26738340#0" fromLane="0" toLane="0"/>

    <connection from="-26738340#1" to="-26738340#0" fromLane="0" toLane="0"/>

    <connection from="-26738340#2" to="-26738340#1" fromLane="0" toLane="0"/>

    <connection from="-26738340#3" to="-26738340#2" fromLane="0" toLane="0"/>

    <connection from="-267651978" to="141841564#3" fromLane="0" toLane="0"/>
    <connection from="-267651978" to="-141841564#2" fromLane="0" toLane="0"/>
    <connection from="-267651978" to="267651978" fromLane="0" toLane="0"/>

    <connection from="-2743#0" to="2748#0" fromLane="0" toLane="0"/>
    <connection from="-2743#0" to="-26312537#4" fromLane="0" toLane="0"/>
    <connection from="-2743#0" to="3609801#1" fromLane="0" toLane="1"/>
    <connection from="-2743#0" to="2743#0" fromLane="0" toLane="0"/>

    <connection from="-2743#1" to="-2743#0" fromLane="0" toLane="0"/>

    <connection from="-2743#2" to="41361248" fromLane="0" toLane="0"/>
    <connection from="-2743#2" to="-2743#1" fromLane="0" toLane="0"/>
    <connection from="-2743#2" to="2743#2" fromLane="0" toLane="0"/>

    <connection from="-2745#0" to="-3609801#3" fromLane="0" toLane="0"/>
    <connection from="-2745#0" to="-39348547#2" fromLane="1" toLane="0"/>
    <connection from="-2745#0" to="2745#0" fromLane="1" toLane="0"/>

    <connection from="-2745#1" to="-2745#0" fromLane="0" toLane="0"/>
    <connection from="-2745#1" to="-2745#0" fromLane="1" toLane="1"/>

    <connection from="-2748#0" to="-26312537#4" fromLane="0" toLane="0"/>
    <connection from="-2748#0" to="3609801#1" fromLane="0" toLane="0"/>
    <connection from="-2748#0" to="3609801#1" fromLane="1" toLane="1"/>
    <connection from="-2748#0" to="2743#0" fromLane="1" toLane="0"/>
    <connection from="-2748#0" to="2748#0" fromLane="1" toLane="1"/>

    <connection from="-2748#1" to="-2748#0" fromLane="0" toLane="0"/>
    <connection from="-2748#1" to="-2748#0" fromLane="1" toLane="1"/>

    <connection from="-2748#2" to="-2748#1" fromLane="0" toLane="0"/>
    <connection from="-2748#2" to="-2748#1" fromLane="1" toLane="1"/>

    <connection from="-2748#3" to="-2748#2" fromLane="0" toLane="0"/>
    <connection from="-2748#3" to="-2748#2" fromLane="1" toLane="1"/>

    <connection from="-2748#4" to="-2748#3" fromLane="0" toLane="0"/>
    <connection from="-2748#4" to="-2748#3" fromLane="1" toLane="1"/>

    <connection from="-2748#5" to="-2748#4" fromLane="0" toLane="0"/>