<?xml version="1.0" encoding="UTF-8"?>

<!-- generated on 2022-04-21 11:14:56 by Eclipse SUMO netconvert Version 1.10.0
<configuration xmlns:xsi="http://www.w3.org/2001/XMLSchema-instance" xsi:noNamespaceSchemaLocation="http://sumo.dlr.de/xsd/netconvertConfiguration.xsd">

    <input>
        <sumo-net-file value="bath3.net.xml"/>
    </input>

    <output>
        <plain-output-prefix value="bath3"/>
    </output>

    <processing>
        <geometry.min-radius.fix.railways value="false"/>
        <geometry.max-grade.fix value="false"/>
        <offset.disable-normalization value="true"/>
        <roundabouts.guess value="false"/>
        <lefthand value="true"/>
    </processing>

    <junctions>
        <no-turnarounds value="true"/>
        <junctions.corner-detail value="5"/>
        <junctions.limit-turn-speed value="5.5"/>
        <rectangular-lane-cut value="false"/>
    </junctions>

    <pedestrian>
        <walkingareas value="false"/>
    </pedestrian>

    <report>
        <aggregate-warnings value="5"/>
    </report>

</configuration>
-->

<nodes version="1.9" xmlns:xsi="http://www.w3.org/2001/XMLSchema-instance" xsi:noNamespaceSchemaLocation="http://sumo.dlr.de/xsd/nodes_file.xsd">
    <location netOffset="-542694.48,-5691444.89" convBoundary="0.00,0.00,2631.48,2495.56" origBoundary="-2.389243,51.372456,-2.343025,51.394913" projParameter="+proj=utm +zone=30 +ellps=WGS84 +datum=WGS84 +units=m +no_defs"/>

    <node id="1033796566" x="2165.70" y="1829.87" type="priority"/>
    <node id="1033796802" x="2143.21" y="1863.46" type="priority"/>
    <node id="1035620161" x="1216.28" y="891.85" type="priority"/>
    <node id="1035620186" x="1338.03" y="968.06" type="priority"/>
    <node id="1035620202" x="1389.55" y="942.82" type="priority"/>
    <node id="1035711210" x="1823.20" y="587.68" type="priority"/>
    <node id="1037902626" x="374.84" y="727.66" type="priority"/>
    <node id="1040135943" x="333.83" y="1660.33" type="priority"/>
    <node id="1040136028" x="283.07" y="1322.71" type="priority"/>
    <node id="1040170443" x="1157.11" y="1237.33" type="priority"/>
    <node id="1040170519" x="1308.46" y="1199.97" type="priority"/>
    <node id="1041147802" x="2029.98" y="1068.73" type="priority"/>
    <node id="1041808971" x="1818.55" y="932.55" type="priority"/>
    <node id="1041809013" x="1835.37" y="921.33" type="priority"/>
    <node id="1041824268" x="1735.35" y="841.56" type="priority"/>
    <node id="1046051232" x="1913.69" y="516.61" type="priority"/>
    <node id="1051587481" x="894.05" y="1493.52" type="priority"/>
    <node id="1052477155" x="998.66" y="1600.89" type="priority"/>
    <node id="1052477172" x="928.06" y="1514.03" type="priority"/>
    <node id="1052563197" x="1027.19" y="1747.90" type="priority"/>
    <node id="1052633584" x="535.00" y="1635.02" type="priority"/>
    <node id="1052633629" x="721.38" y="1768.53" type="priority"/>
    <node id="1060001075" x="2354.72" y="526.60" type="priority"/>
    <node id="1060150154" x="2578.49" y="711.27" type="priority"/>
    <node id="1060160480" x="2608.05" y="1149.60" type="priority"/>
    <node id="1070633749" x="1777.29" y="1404.23" type="priority"/>
    <node id="1070654430" x="1862.37" y="1334.46" type="priority"/>
    <node id="1075355233" x="1084.82" y="804.01" type="priority"/>
    <node id="1075355245" x="1097.14" y="818.02" type="priority"/>
    <node id="1075355263" x="1067.03" y="816.70" type="traffic_light" tl="GS_1075355263"/>
    <node id="1075397336" x="1501.57" y="1125.66" type="priority"/>
    <node id="1075397406" x="1494.34" y="1108.02" type="priority"/>
    <node id="1077594324" x="2221.50" y="794.40" type="priority"/>
    <node id="1081099958" x="1163.04" y="355.27" type="priority"/>
    <node id="1081100073" x="1165.77" y="350.35" type="priority"/>
    <node id="1084841167" x="361.87" y="1047.17" type="priority"/>
    <node id="1084841177" x="317.46" y="1016.29" type="priority"/>
    <node id="1089649385" x="912.91" y="922.61" type="priority"/>
    <node id="1089649756" x="921.75" y="921.11" type="priority"/>
    <node id="1089649961" x="961.79" y="953.88" type="priority"/>
    <node id="1089650020" x="940.56" y="906.51" type="priority"/>
    <node id="1099610884" x="1673.85" y="1049.20" type="priority"/>
    <node id="1115426591" x="2134.61" y="640.41" type="priority"/>
    <node id="1126315645" x="1804.19" y="554.16" type="priority"/>
    <node id="1126315882" x="1707.24" y="569.24" type="priority"/>
    <node id="1127898590" x="2072.49" y="1483.15" type="priority"/>
    <node id="1127975785" x="1924.39" y="1891.27" type="priority"/>
    <node id="1245000353" x="1527.54" y="518.06" type="priority"/>
    <node id="126714" x="821.77" y="965.44" type="priority"/>
    <node id="126715" x="1117.91" y="782.20" type="priority"/>
    <node id="126717" x="1397.64" y="671.22" type="priority"/>
    <node id="126719" x="1782.90" y="547.52" type="priority"/>
    <node id="126720" x="362.59" y="1059.93" type="traffic_light" tl="GS_126720"/>
    <node id="126983" x="1516.17" y="644.82" type="priority"/>
    <node id="1308681394" x="1398.14" y="956.87" type="priority"/>
    <node id="1312902024" x="982.95" y="872.06" type="priority"/>
    <node id="1312902030" x="1033.47" y="839.36" type="priority"/>
    <node id="1324422731" x="2419.69" y="1445.47" type="priority"/>
    <node id="1327914113" x="2430.60" y="1429.17" type="priority"/>
    <node id="1327921715" x="2338.79" y="1645.66" type="priority"/>
    <node id="1328485930" x="2311.02" y="1788.13" type="priority"/>
    <node id="1328567182" x="1540.84" y="1966.22" type="priority"/>
    <node id="1328567197" x="1477.89" y="1929.99" type="right_before_left"/>
    <node id="1328567217" x="1473.92" y="1924.18" type="priority"/>
    <node id="1328567220" x="1483.06" y="1935.71" type="priority"/>
    <node id="1328567235" x="1625.08" y="1736.18" type="priority"/>
    <node id="1344435848" x="1106.54" y="2213.71" type="priority"/>
    <node id="1356828836" x="565.48" y="845.03" type="priority"/>
    <node id="1356828860" x="574.98" y="889.25" type="priority"/>
    <node id="1356830043" x="569.06" y="890.86" type="priority"/>
    <node id="1356830052" x="474.11" y="916.01" type="priority"/>
    <node id="1361315368" x="1899.62" y="1765.64" type="priority"/>
    <node id="1373580590" x="1930.98" y="426.34" type="priority"/>
    <node id="13797704" x="2497.36" y="1413.84" type="priority"/>
    <node id="13804897" x="1693.53" y="1816.83" type="priority"/>
    <node id="13804901" x="1631.24" y="1860.96" type="priority"/>
    <node id="13804905" x="1982.97" y="1395.39" type="priority"/>
    <node id="13804907" x="2025.06" y="1365.69" type="priority"/>
    <node id="13804908" x="2077.58" y="1490.46" type="priority"/>
    <node id="13804909" x="2036.30" y="1571.18" type="priority"/>
    <node id="13804911" x="1984.94" y="1408.21" type="priority"/>
    <node id="13804913" x="2066.08" y="1358.46" type="right_before_left"/>
    <node id="13804915" x="2223.80" y="1381.97" type="priority"/>
    <node id="13804916" x="2258.41" y="1400.77" type="priority"/>
    <node id="13804920" x="2361.43" y="1474.35" type="priority"/>
    <node id="13804921" x="2042.31" y="1204.98" type="priority"/>
    <node id="13804923" x="2008.48" y="1271.00" type="priority"/>
    <node id="13804935" x="2198.04" y="1622.17" type="priority"/>
    <node id="13804936" x="2284.17" y="1480.74" type="priority"/>
    <node id="13804944" x="2358.20" y="1632.08" type="priority"/>
    <node id="13804945" x="2267.94" y="1347.71" type="priority"/>
    <node id="13804946" x="2215.59" y="1314.41" type="priority"/>
    <node id="13804947" x="2319.56" y="1379.94" type="right_before_left"/>
    <node id="13804949" x="2380.95" y="1287.33" type="priority"/>
    <node id="13804950" x="2365.98" y="1310.48" type="priority"/>
    <node id="13804955" x="2252.21" y="1258.25" type="priority"/>
    <node id="13804957" x="2429.82" y="1300.34" type="priority"/>
    <node id="13804959" x="2447.06" y="1302.09" type="priority"/>
    <node id="13804960" x="2451.19" y="1294.76" type="priority"/>
    <node id="13804964" x="2431.06" y="1284.14" type="priority"/>
    <node id="13804966" x="2390.84" y="1283.04" type="priority"/>
    <node id="13804972" x="2542.88" y="1406.81" type="priority"/>
    <node id="13804984" x="2086.16" y="1658.87" type="right_before_left"/>
    <node id="13804986" x="2073.06" y="1724.89" type="priority"/>
    <node id="13804988" x="2148.02" y="1857.21" type="priority"/>
    <node id="13804995" x="2068.75" y="1222.38" type="priority"/>
    <node id="13804996" x="2166.66" y="1282.27" type="priority"/>
    <node id="13805000" x="2065.85" y="1436.91" type="priority"/>
    <node id="13805124" x="2007.49" y="1035.95" type="priority"/>
    <node id="13805129" x="1990.60" y="1003.92" type="priority"/>
    <node id="13805137" x="2251.71" y="1373.65" type="priority"/>
    <node id="13853819" x="2223.29" y="803.55" type="priority"/>
    <node id="13853821" x="2214.98" y="690.39" type="priority"/>
    <node id="13853866" x="2195.04" y="496.91" type="priority"/>
    <node id="13853879" x="2419.89" y="410.13" type="priority"/>
    <node id="13853884" x="2497.12" y="459.60" type="priority"/>
    <node id="13854797" x="2359.52" y="507.82" type="priority"/>
    <node id="13855353" x="2631.48" y="290.58" type="priority"/>
    <node id="13855838" x="2579.55" y="706.26" type="priority"/>
    <node id="13860232" x="2388.86" y="1610.80" type="right_before_left"/>
    <node id="1386027198" x="1073.80" y="1387.08" type="priority"/>
    <node id="13860458" x="1366.87" y="1545.17" type="priority"/>
    <node id="13860459" x="1417.39" y="1734.05" type="priority"/>
    <node id="13860462" x="1602.06" y="1690.70" type="priority"/>
    <node id="13860463" x="1379.82" y="1733.19" type="priority"/>
    <node id="13861784" x="1407.77" y="211.75" type="priority"/>
    <node id="13861800" x="1531.27" y="368.59" type="priority"/>
    <node id="13861810" x="1487.64" y="442.46" type="priority"/>
    <node id="13861811" x="1377.75" y="417.07" type="priority"/>
    <node id="13861812" x="1540.88" y="455.13" type="priority"/>
    <node id="13861817" x="1670.62" y="407.80" type="right_before_left"/>
    <node id="13861819" x="1744.11" y="441.80" type="priority"/>
    <node id="13861820" x="1858.32" y="431.02" type="priority"/>
    <node id="13861821" x="1837.09" y="433.44" type="priority"/>
    <node id="13861822" x="1838.36" y="452.79" type="priority"/>
    <node id="13861823" x="1822.14" y="454.95" type="priority"/>
    <node id="13861849" x="2279.79" y="0.00" type="priority"/>
    <node id="13861879" x="2606.62" y="0.87" type="priority"/>
    <node id="13862092" x="2279.82" y="448.76" type="priority"/>
    <node id="13862207" x="307.71" y="1058.43" type="right_before_left"/>
    <node id="13862585" x="950.91" y="1302.42" type="priority"/>
    <node id="13862746" x="2236.65" y="812.25" type="priority"/>
    <node id="13862747" x="2314.82" y="821.59" type="priority"/>
    <node id="13862748" x="2278.91" y="788.47" type="priority"/>
    <node id="13862750" x="2269.05" y="813.18" type="priority"/>
    <node id="13862754" x="2390.55" y="774.29" type="priority"/>
    <node id="13862755" x="2385.15" y="732.21" type="priority"/>
    <node id="13862756" x="2374.40" y="680.75" type="priority"/>
    <node id="13862762" x="2274.55" y="721.20" type="priority"/>
    <node id="13862764" x="2273.82" y="681.17" type="priority"/>
    <node id="13862765" x="2278.25" y="785.68" type="priority"/>
    <node id="13862775" x="2424.36" y="596.01" type="priority"/>
    <node id="13862776" x="2534.46" y="737.84" type="priority"/>
    <node id="13862779" x="2564.51" y="789.32" type="priority"/>
    <node id="13862781" x="2455.10" y="854.56" type="priority"/>
    <node id="13862790" x="2507.30" y="499.40" type="priority"/>
    <node id="13862791" x="2618.10" y="585.80" type="priority"/>
    <node id="13863004" x="2504.33" y="1031.00" type="priority"/>
    <node id="13864627" x="1269.90" y="590.49" type="priority"/>
    <node id="13864628" x="1331.30" y="579.30" type="priority"/>
    <node id="13864630" x="1322.37" y="533.99" type="priority"/>
    <node id="13864634" x="1173.04" y="429.01" type="priority"/>
    <node id="13864637" x="1106.39" y="415.67" type="priority"/>
    <node id="13865227" x="1487.82" y="572.65" type="priority"/>
    <node id="13865228" x="102.99" y="783.83" type="dead_end"/>
    <node id="13866049" x="490.03" y="681.07" type="priority"/>
    <node id="13866050" x="561.97" y="671.92" type="priority"/>
    <node id="13866051" x="669.44" y="640.49" type="priority"/>
    <node id="13866052" x="647.33" y="609.75" type="priority"/>
    <node id="13866055" x="536.98" y="516.61" type="priority"/>
    <node id="13866061" x="496.29" y="567.28" type="priority"/>
    <node id="13866062" x="449.27" y="618.72" type="priority"/>
    <node id="13866063" x="395.51" y="548.21" type="priority"/>
    <node id="13866066" x="354.22" y="869.49" type="priority"/>
    <node id="13866067" x="379.90" y="762.80" type="priority"/>
    <node id="13866069" x="350.71" y="926.28" type="priority"/>
    <node id="13866070" x="475.22" y="913.10" type="priority"/>
    <node id="13866071" x="467.12" y="857.70" type="priority"/>
    <node id="13866072" x="475.70" y="900.91" type="priority"/>
    <node id="13866075" x="506.40" y="851.95" type="priority"/>
    <node id="13866076" x="492.54" y="773.19" type="priority"/>
    <node id="13866077" x="426.10" y="784.25" type="priority"/>
    <node id="13866081" x="632.54" y="798.19" type="priority"/>
    <node id="13866082" x="578.04" y="905.34" type="priority"/>
    <node id="13866084" x="593.55" y="916.45" type="priority"/>
    <node id="13866085" x="613.52" y="922.25" type="priority"/>
    <node id="13866086" x="607.78" y="900.41" type="priority"/>
    <node id="13866088" x="635.04" y="997.46" type="priority"/>
    <node id="13866091" x="770.74" y="920.20" type="priority"/>
    <node id="13866092" x="806.43" y="957.84" type="priority"/>
    <node id="13866097" x="658.43" y="810.10" type="priority"/>
    <node id="13866101" x="620.11" y="765.17" type="priority"/>
    <node id="13866106" x="670.16" y="990.38" type="priority"/>
    <node id="13866113" x="675.34" y="1420.03" type="priority"/>
    <node id="13866114" x="897.24" y="1326.83" type="priority"/>
    <node id="13866117" x="1030.32" y="1277.72" type="priority"/>
    <node id="13866556" x="2540.88" y="1124.60" type="dead_end"/>
    <node id="13867052" x="637.27" y="471.72" type="priority"/>
    <node id="13867053" x="682.28" y="498.99" type="priority"/>
    <node id="13867054" x="707.23" y="502.35" type="priority"/>
    <node id="13867055" x="694.90" y="464.62" type="priority"/>
    <node id="13867056" x="846.57" y="449.36" type="priority"/>
    <node id="13868219" x="1573.84" y="2196.33" type="priority"/>
    <node id="13874112" x="1988.77" y="2076.37" type="priority"/>
    <node id="13874119" x="1702.46" y="1990.24" type="priority"/>
    <node id="13874122" x="1739.03" y="1855.12" type="priority"/>
    <node id="13874124" x="1787.41" y="1894.44" type="priority"/>
    <node id="13874127" x="1886.69" y="2015.19" type="priority"/>
    <node id="13874129" x="1896.46" y="2074.07" type="priority"/>
    <node id="13874131" x="1904.95" y="2188.10" type="priority"/>
    <node id="13875243" x="1387.50" y="1802.72" type="right_before_left"/>
    <node id="13875248" x="1418.93" y="1876.00" type="right_before_left"/>
    <node id="13875254" x="1366.82" y="1915.50" type="right_before_left"/>
    <node id="13875274" x="1501.61" y="1850.18" type="right_before_left"/>
    <node id="13875277" x="1457.63" y="1860.95" type="right_before_left"/>
    <node id="13875283" x="1522.88" y="1823.42" type="right_before_left"/>
    <node id="13875285" x="1462.57" y="1859.55" type="priority"/>
    <node id="13875287" x="1285.00" y="1787.41" type="right_before_left"/>
    <node id="13875289" x="1295.62" y="1874.50" type="right_before_left"/>
    <node id="13875291" x="1234.16" y="1794.77" type="right_before_left"/>
    <node id="13875295" x="1329.11" y="1917.23" type="right_before_left"/>
    <node id="13875298" x="1245.05" y="1881.25" type="right_before_left"/>
    <node id="13875310" x="1102.54" y="1473.43" type="priority"/>
    <node id="13875313" x="1050.58" y="1478.70" type="priority"/>
    <node id="13875314" x="1033.86" y="1480.29" type="priority"/>
    <node id="13875317" x="960.66" y="1488.95" type="priority"/>
    <node id="13875321" x="947.44" y="1490.24" type="priority"/>
    <node id="13875323" x="930.83" y="1503.97" type="priority"/>
    <node id="13875330" x="1026.33" y="1733.64" type="priority"/>
    <node id="13875342" x="664.22" y="1520.09" type="priority"/>
    <node id="13875343" x="718.52" y="1511.05" type="priority"/>
    <node id="13875344" x="791.93" y="1503.78" type="priority"/>
    <node id="13875347" x="1031.84" y="1759.96" type="priority"/>
    <node id="13875350" x="623.18" y="1833.04" type="priority"/>
    <node id="13875353" x="536.42" y="1737.37" type="priority"/>
    <node id="13875355" x="558.17" y="1440.53" type="priority"/>
    <node id="13875357" x="686.20" y="1983.77" type="priority"/>
    <node id="13875358" x="680.16" y="1998.14" type="priority"/>
    <node id="13875359" x="706.46" y="1980.55" type="priority"/>
    <node id="13875360" x="461.08" y="1902.47" type="priority"/>
    <node id="13875361" x="469.70" y="1929.32" type="priority"/>
    <node id="13875362" x="516.47" y="1917.44" type="priority"/>
    <node id="13875363" x="493.57" y="2000.38" type="priority"/>
    <node id="13875365" x="574.63" y="1934.05" type="priority"/>
    <node id="13875388" x="447.14" y="2165.30" type="priority"/>
    <node id="13875394" x="428.87" y="1914.12" type="priority"/>
    <node id="13875398" x="400.87" y="1711.02" type="priority"/>
    <node id="13875401" x="332.97" y="1957.32" type="priority"/>
    <node id="13875404" x="158.70" y="2027.86" type="priority"/>
    <node id="13875424" x="303.97" y="1713.14" type="priority"/>
    <node id="13875425" x="310.01" y="1783.72" type="priority"/>
    <node id="13875426" x="303.74" y="1783.66" type="priority"/>
    <node id="13875427" x="317.34" y="1782.21" type="priority"/>
    <node id="13875428" x="346.02" y="1714.86" type="priority"/>
    <node id="13875445" x="251.30" y="1310.12" type="priority"/>
    <node id="13875481" x="1186.78" y="1968.44" type="priority"/>
    <node id="13878517" x="654.67" y="168.29" type="priority"/>
    <node id="13878524" x="439.21" y="237.96" type="priority"/>
    <node id="13878526" x="419.60" y="328.58" type="priority"/>
    <node id="13878527" x="327.41" y="382.89" type="priority"/>
    <node id="13886799" x="2030.62" y="2112.68" type="priority"/>
    <node id="13886802" x="2114.31" y="2038.05" type="priority"/>
    <node id="13886812" x="2136.58" y="2012.29" type="priority"/>
    <node id="13889131" x="1978.41" y="1931.10" type="priority"/>
    <node id="13889135" x="2053.12" y="1893.80" type="priority"/>
    <node id="13895097" x="2276.31" y="2495.56" type="priority"/>
    <node id="13911122" x="1153.53" y="516.81" type="priority"/>
    <node id="13912223" x="2496.67" y="1617.79" type="priority"/>
    <node id="13912297" x="2494.08" y="1651.79" type="priority"/>
    <node id="13912817" x="2509.52" y="1829.48" type="priority"/>
    <node id="13912818" x="2517.86" y="1937.78" type="priority"/>
    <node id="13912868" x="2331.48" y="1839.38" type="priority"/>
    <node id="13912898" x="2379.88" y="1733.44" type="priority"/>
    <node id="13933141" x="2106.07" y="475.05" type="priority"/>
    <node id="1412174334" x="1504.34" y="1103.23" type="priority"/>
    <node id="1412174336" x="1488.17" y="1096.20" type="priority"/>
    <node id="1412174337" x="1519.05" y="1098.86" type="priority"/>
    <node id="1413669708" x="731.74" y="1409.29" type="priority"/>
    <node id="1413700623" x="659.28" y="992.33" type="priority"/>
    <node id="1416939593" x="1304.73" y="1734.89" type="priority"/>
    <node id="1426892" x="1599.88" y="997.35" type="priority"/>
    <node id="14377858" x="2303.98" y="1585.94" type="priority"/>
    <node id="14378868" x="1996.48" y="1113.13" type="priority"/>
    <node id="14378869" x="2005.69" y="1181.84" type="priority"/>
    <node id="14381234" x="2304.59" y="934.57" type="priority"/>
    <node id="14382712" x="2370.58" y="819.62" type="priority"/>
    <node id="14384188" x="1825.41" y="435.18" type="priority"/>
    <node id="14387760" x="1675.50" y="1266.04" type="priority"/>
    <node id="14389032" x="1778.07" y="513.03" type="priority"/>
    <node id="14389034" x="1695.99" y="495.43" type="right_before_left"/>
    <node id="14560090" x="812.38" y="967.68" type="priority"/>
    <node id="14563977" x="601.82" y="441.24" type="priority"/>
    <node id="14563980" x="409.03" y="383.40" type="priority"/>
    <node id="14563981" x="419.67" y="417.57" type="priority"/>
    <node id="14563982" x="459.84" y="392.26" type="priority"/>
    <node id="14563984" x="575.23" y="416.36" type="right_before_left"/>
    <node id="14565807" x="2025.43" y="878.32" type="priority"/>
    <node id="14565808" x="2003.25" y="877.41" type="priority"/>
    <node id="14565810" x="2043.98" y="879.03" type="priority"/>
    <node id="1467210465" x="765.60" y="798.91" type="priority"/>
    <node id="14718704" x="1644.11" y="1183.32" type="priority"/>
    <node id="14718708" x="1661.37" y="1267.00" type="priority"/>
    <node id="14718710" x="1460.34" y="1213.22" type="priority"/>
    <node id="14718712" x="1292.08" y="1205.44" type="right_before_left"/>
    <node id="14718714" x="1127.32" y="1076.30" type="priority"/>
    <node id="14718715" x="1140.89" y="1089.35" type="priority"/>
    <node id="14718720" x="1076.83" y="1192.26" type="priority"/>
    <node id="14718722" x="1090.60" y="1257.09" type="priority"/>
    <node id="14718723" x="1185.24" y="1230.53" type="priority"/>
    <node id="14718744" x="1273.22" y="1154.59" type="priority"/>
    <node id="14718745" x="1294.05" y="1147.09" type="priority"/>
    <node id="14718746" x="1452.55" y="1073.73" type="priority"/>
    <node id="14718747" x="1469.62" y="1060.61" type="priority"/>
    <node id="14718750" x="1258.47" y="1110.90" type="priority"/>
    <node id="14718751" x="1190.42" y="1013.53" type="priority"/>
    <node id="14718757" x="1536.61" y="1242.23" type="priority"/>
    <node id="1473154541" x="1114.47" y="784.11" type="right_before_left"/>
    <node id="1473154542" x="1091.59" y="799.03" type="priority"/>
    <node id="1473154547" x="1092.01" y="820.73" type="priority"/>
    <node id="1473154548" x="2454.66" y="867.88" type="right_before_left"/>
    <node id="1473154550" x="1136.17" y="861.02" type="priority"/>
    <node id="1473154551" x="1116.52" y="862.42" type="priority"/>
    <node id="1473154553" x="1123.57" y="870.33" type="priority"/>
    <node id="1473154554" x="1119.92" y="872.26" type="priority"/>
    <node id="1473154556" x="1110.13" y="874.45" type="priority"/>
    <node id="1473154558" x="939.76" y="909.50" type="priority"/>
    <node id="1473154561" x="831.95" y="917.16" type="priority"/>
    <node id="1473154565" x="844.19" y="940.28" type="priority"/>
    <node id="1473154568" x="840.72" y="944.31" type="priority"/>
    <node id="1473154569" x="874.56" y="946.00" type="priority"/>
    <node id="1473154571" x="847.93" y="948.68" type="priority"/>
    <node id="1473154572" x="872.42" y="947.55" type="right_before_left"/>
    <node id="1473154573" x="840.07" y="949.20" type="priority"/>
    <node id="1473154576" x="845.55" y="959.64" type="priority"/>
    <node id="1473154579" x="838.56" y="961.09" type="priority"/>
    <node id="1473154581" x="803.19" y="969.39" type="right_before_left"/>
    <node id="1473154582" x="570.93" y="1014.48" type="right_before_left"/>
    <node id="1473154583" x="359.49" y="1032.48" type="priority"/>
    <node id="1473154587" x="420.33" y="1047.72" type="right_before_left"/>
    <node id="1473154588" x="392.51" y="1053.16" type="priority"/>
    <node id="1473154590" x="375.79" y="1057.36" type="priority"/>
    <node id="1473154591" x="2446.90" y="1075.68" type="right_before_left"/>
    <node id="1473154592" x="342.89" y="1062.11" type="priority"/>
    <node id="1473154595" x="376.63" y="1067.77" type="priority"/>
    <node id="1473154597" x="373.86" y="1073.02" type="priority"/>
    <node id="1473154599" x="363.44" y="1070.65" type="priority"/>
    <node id="1473154603" x="370.87" y="1129.40" type="right_before_left"/>
    <node id="1473154608" x="2434.78" y="1376.02" type="right_before_left"/>
    <node id="1473154609" x="2428.71" y="1554.62" type="priority"/>
    <node id="1473154612" x="2434.86" y="1569.36" type="priority"/>
    <node id="1473154613" x="2439.02" y="1574.80" type="priority"/>
    <node id="1473154614" x="2432.59" y="1576.18" type="priority"/>
    <node id="1473154616" x="2450.66" y="1584.42" type="priority"/>
    <node id="1473154617" x="2428.77" y="1583.77" type="priority"/>
    <node id="1473154618" x="2418.47" y="1585.66" type="priority"/>
    <node id="1473154619" x="2447.25" y="1589.00" type="priority"/>
    <node id="1473154621" x="2420.05" y="1590.40" type="priority"/>
    <node id="1473154628" x="2477.24" y="1605.01" type="right_before_left"/>
    <node id="1475064306" x="1488.35" y="576.10" type="priority"/>
    <node id="1475064308" x="2223.51" y="664.32" type="priority"/>
    <node id="1475064345" x="2502.07" y="1031.94" type="priority"/>
    <node id="1475064350" x="2535.74" y="1126.04" type="dead_end"/>
    <node id="14779265" x="536.29" y="1544.72" type="priority"/>
    <node id="14779266" x="569.91" y="1572.65" type="priority"/>
    <node id="14779267" x="797.88" y="1777.02" type="priority"/>
    <node id="14779272" x="1109.41" y="1497.70" type="priority"/>
    <node id="14779287" x="1543.70" y="1304.64" type="priority"/>
    <node id="14779289" x="1407.70" y="1696.46" type="right_before_left"/>
    <node id="14779295" x="1651.11" y="1670.59" type="priority"/>
    <node id="14779297" x="1650.62" y="1563.34" type="priority"/>
    <node id="14779298" x="884.76" y="1494.05" type="priority"/>
    <node id="14779300" x="866.99" y="1343.45" type="priority"/>
    <node id="14779301" x="1346.99" y="1444.28" type="priority"/>
    <node id="14779322" x="1093.62" y="1444.22" type="priority"/>
    <node id="14779324" x="1517.52" y="1332.99" type="priority"/>
    <node id="14779327" x="1471.76" y="1403.12" type="priority"/>
    <node id="14916966" x="1440.15" y="1687.47" type="priority"/>
    <node id="14916967" x="1457.71" y="1682.83" type="priority"/>
    <node id="14916970" x="1422.74" y="1622.10" type="priority"/>
    <node id="14916973" x="1471.01" y="1563.02" type="priority"/>
    <node id="14916974" x="1586.26" y="1618.03" type="priority"/>
    <node id="15430811" x="1202.01" y="1751.55" type="priority"/>
    <node id="15430855" x="1286.38" y="2065.01" type="priority"/>
    <node id="15430856" x="1238.18" y="1948.22" type="right_before_left"/>
    <node id="15430858" x="1785.92" y="1986.17" type="priority"/>
    <node id="15523264" x="1681.09" y="1827.11" type="priority"/>
    <node id="1552607730" x="877.53" y="943.84" type="priority"/>
    <node id="1552607734" x="923.86" y="993.36" type="priority"/>
    <node id="1552607741" x="903.35" y="1026.28" type="priority"/>
    <node id="1552607806" x="877.63" y="1060.50" type="priority"/>
    <node id="1552648217" x="979.08" y="956.14" type="traffic_light" tl="joinedS_0"/>
    <node id="1552648230" x="954.57" y="967.65" type="priority"/>
    <node id="15729448" x="1770.04" y="775.59" type="priority"/>
    <node id="1601105440" x="1163.28" y="321.09" type="priority"/>
    <node id="16204683" x="1921.60" y="1522.47" type="priority"/>
    <node id="16204684" x="1962.36" y="1651.05" type="priority"/>
    <node id="16204688" x="1991.55" y="1836.57" type="priority"/>
    <node id="16204692" x="1860.24" y="1495.65" type="priority"/>
    <node id="16204693" x="1868.62" y="1528.27" type="priority"/>
    <node id="16204696" x="1892.84" y="1662.01" type="priority"/>
    <node id="16204697" x="1937.31" y="1782.94" type="priority"/>
    <node id="16204698" x="1903.25" y="1793.75" type="priority"/>
    <node id="16204699" x="1906.42" y="1815.03" type="priority"/>
    <node id="16204700" x="1882.28" y="1821.40" type="priority"/>
    <node id="16263278" x="1447.14" y="1734.40" type="priority"/>
    <node id="16263279" x="1347.17" y="1807.51" type="right_before_left"/>
    <node id="16263280" x="1346.02" y="1801.48" type="priority"/>
    <node id="16263282" x="1369.77" y="1880.09" type="priority"/>
    <node id="16263286" x="1567.82" y="1845.66" type="priority"/>
    <node id="16263287" x="1543.86" y="1845.10" type="right_before_left"/>
    <node id="1662876581" x="945.48" y="960.31" type="priority"/>
    <node id="1662876618" x="848.90" y="1066.14" type="priority"/>
    <node id="1662876654" x="818.27" y="1072.95" type="priority"/>
    <node id="1717096779" x="540.36" y="509.14" type="priority"/>
    <node id="1717097630" x="609.75" y="448.42" type="priority"/>
    <node id="1742738017" x="681.95" y="348.72" type="priority"/>
    <node id="1742777069" x="629.76" y="465.51" type="priority"/>
    <node id="1742777083" x="665.64" y="582.77" type="priority"/>
    <node id="1762601732" x="680.06" y="1106.18" type="priority"/>
    <node id="1762606077" x="816.40" y="888.78" type="priority"/>
    <node id="1762606081" x="921.24" y="910.14" type="priority"/>
    <node id="1762608174" x="883.81" y="939.56" type="priority"/>
    <node id="17816769" x="419.72" y="2073.08" type="priority"/>
    <node id="17816770" x="240.83" y="1998.93" type="priority"/>
    <node id="17855150" x="1856.34" y="844.20" type="priority"/>
    <node id="17855153" x="1925.91" y="861.05" type="priority"/>
    <node id="17855154" x="1881.25" y="850.37" type="priority"/>