<?xml version="1.0" encoding="UTF-8"?>

<!-- generated on 2022-04-14 14:58:18 by Eclipse SUMO netedit Version 1.10.0
<configuration xmlns:xsi="http://www.w3.org/2001/XMLSchema-instance" xsi:noNamespaceSchemaLocation="http://sumo.dlr.de/xsd/netconvertConfiguration.xsd">

    <input>
        <sumo-net-file value="C:\Users\sam\Documents\Work\Final%20Year\Dissertation\diss\Simulation\simple\juncLtnGrid.net.xml"/>
    </input>

    <output>
        <output-file value="C:\Users\sam\Documents\Work\Final%20Year\Dissertation\diss\Simulation\simple\juncLtnGrid.net.xml"/>
    </output>

    <processing>
        <geometry.min-radius.fix.railways value="false"/>
        <geometry.max-grade.fix value="false"/>
        <offset.disable-normalization value="true"/>
        <lefthand value="false"/>
    </processing>

    <junctions>
        <no-turnarounds value="true"/>
        <junctions.corner-detail value="5"/>
        <junctions.limit-turn-speed value="5.5"/>
        <rectangular-lane-cut value="false"/>
    </junctions>

    <pedestrian>
        <walkingareas value="false"/>
    </pedestrian>

    <report>
        <aggregate-warnings value="5"/>
    </report>

</configuration>
-->

<net version="1.9" junctionCornerDetail="5" limitTurnSpeed="5.50" xmlns:xsi="http://www.w3.org/2001/XMLSchema-instance" xsi:noNamespaceSchemaLocation="http://sumo.dlr.de/xsd/net_file.xsd">

    <location netOffset="0.00,0.00" convBoundary="-400.00,-600.00,100.00,-100.00" origBoundary="-10000000000.00,-10000000000.00,10000000000.00,10000000000.00" projParameter="!"/>

    <edge id=":gneJ100_0" function="internal">
        <lane id=":gneJ100_0_0" index="0" speed="13.89" length="14.40" shape="-401.60,-492.80 -401.60,-507.20"/>
    </edge>
    <edge id=":gneJ100_1" function="internal">
        <lane id=":gneJ100_1_0" index="0" speed="8.00" length="5.93" shape="-401.60,-492.80 -401.05,-496.65 -400.00,-498.40"/>
    </edge>
    <edge id=":gneJ100_6" function="internal">
        <lane id=":gneJ100_6_0" index="0" speed="8.00" length="8.26" shape="-400.00,-498.40 -399.40,-499.40 -396.65,-501.05 -392.80,-501.60"/>
    </edge>
    <edge id=":gneJ100_2" function="internal">
        <lane id=":gneJ100_2_0" index="0" speed="6.51" length="9.03" shape="-392.80,-498.40 -395.25,-498.05 -397.00,-497.00 -398.05,-495.25 -398.40,-492.80"/>
    </edge>
    <edge id=":gneJ100_3" function="internal">
        <lane id=":gneJ100_3_0" index="0" speed="8.00" length="14.19" shape="-392.80,-498.40 -396.65,-498.95 -399.40,-500.60 -401.05,-503.35 -401.60,-507.20"/>
    </edge>
    <edge id=":gneJ100_4" function="internal">
        <lane id=":gneJ100_4_0" index="0" speed="6.51" length="9.03" shape="-398.40,-507.20 -398.05,-504.75 -397.00,-503.00 -395.25,-501.95 -392.80,-501.60"/>
    </edge>
    <edge id=":gneJ100_5" function="internal">
        <lane id=":gneJ100_5_0" index="0" speed="13.89" length="14.40" shape="-398.40,-507.20 -398.40,-492.80"/>
    </edge>
    <edge id=":gneJ101_0" function="internal">
        <lane id=":gneJ101_0_0" index="0" speed="6.51" length="9.03" shape="-301.60,-492.80 -301.95,-495.25 -303.00,-497.00 -304.75,-498.05 -307.20,-498.40"/>
    </edge>
    <edge id=":gneJ101_1" function="internal">
        <lane id=":gneJ101_1_0" index="0" speed="13.89" length="14.40" shape="-301.60,-492.80 -301.60,-507.20"/>
    </edge>
    <edge id=":gneJ101_2" function="internal">
        <lane id=":gneJ101_2_0" index="0" speed="8.00" length="5.93" shape="-301.60,-492.80 -301.05,-496.65 -300.00,-498.40"/>
    </edge>
    <edge id=":gneJ101_12" function="internal">
        <lane id=":gneJ101_12_0" index="0" speed="8.00" length="8.26" shape="-300.00,-498.40 -299.40,-499.40 -296.65,-501.05 -292.80,-501.60"/>
    </edge>
    <edge id=":gneJ101_3" function="internal">
        <lane id=":gneJ101_3_0" index="0" speed="6.51" length="9.03" shape="-292.80,-498.40 -295.25,-498.05 -297.00,-497.00 -298.05,-495.25 -298.40,-492.80"/>
    </edge>
    <edge id=":gneJ101_4" function="internal">
        <lane id=":gneJ101_4_0" index="0" speed="13.89" length="14.40" shape="-292.80,-498.40 -307.20,-498.40"/>
    </edge>
    <edge id=":gneJ101_5" function="internal">
        <lane id=":gneJ101_5_0" index="0" speed="8.00" length="14.19" shape="-292.80,-498.40 -296.65,-498.95 -299.40,-500.60 -301.05,-503.35 -301.60,-507.20"/>
    </edge>
    <edge id=":gneJ101_6" function="internal">
        <lane id=":gneJ101_6_0" index="0" speed="6.51" length="9.03" shape="-298.40,-507.20 -298.05,-504.75 -297.00,-503.00 -295.25,-501.95 -292.80,-501.60"/>
    </edge>
    <edge id=":gneJ101_7" function="internal">
        <lane id=":gneJ101_7_0" index="0" speed="13.89" length="14.40" shape="-298.40,-507.20 -298.40,-492.80"/>
    </edge>
    <edge id=":gneJ101_8" function="internal">
        <lane id=":gneJ101_8_0" index="0" speed="8.00" length="5.93" shape="-298.40,-507.20 -298.95,-503.35 -300.00,-501.60"/>
    </edge>
    <edge id=":gneJ101_13" function="internal">
        <lane id=":gneJ101_13_0" index="0" speed="8.00" length="8.26" shape="-300.00,-501.60 -300.60,-500.60 -303.35,-498.95 -307.20,-498.40"/>
    </edge>
    <edge id=":gneJ101_9" function="internal">
        <lane id=":gneJ101_9_0" index="0" speed="6.51" length="9.03" shape="-307.20,-501.60 -304.75,-501.95 -303.00,-503.00 -301.95,-504.75 -301.60,-507.20"/>
    </edge>
    <edge id=":gneJ101_10" function="internal">
        <lane id=":gneJ101_10_0" index="0" speed="13.89" length="14.40" shape="-307.20,-501.60 -292.80,-501.60"/>
    </edge>
    <edge id=":gneJ101_11" function="internal">
        <lane id=":gneJ101_11_0" index="0" speed="8.00" length="14.19" shape="-307.20,-501.60 -303.35,-501.05 -300.60,-499.40 -298.95,-496.65 -298.40,-492.80"/>
    </edge>
    <edge id=":gneJ102_0" function="internal">
        <lane id=":gneJ102_0_0" index="0" speed="6.51" length="9.03" shape="-201.60,-492.80 -201.95,-495.25 -203.00,-497.00 -204.75,-498.05 -207.20,-498.40"/>
    </edge>
    <edge id=":gneJ102_1" function="internal">
        <lane id=":gneJ102_1_0" index="0" speed="13.89" length="14.40" shape="-201.60,-492.80 -201.60,-507.20"/>
    </edge>
    <edge id=":gneJ102_2" function="internal">
        <lane id=":gneJ102_2_0" index="0" speed="13.89" length="14.40" shape="-198.40,-507.20 -198.40,-492.80"/>
    </edge>
    <edge id=":gneJ102_3" function="internal">
        <lane id=":gneJ102_3_0" index="0" speed="8.00" length="5.93" shape="-198.40,-507.20 -198.95,-503.35 -200.00,-501.60"/>
    </edge>
    <edge id=":gneJ102_6" function="internal">
        <lane id=":gneJ102_6_0" index="0" speed="8.00" length="8.26" shape="-200.00,-501.60 -200.60,-500.60 -203.35,-498.95 -207.20,-498.40"/>
    </edge>
    <edge id=":gneJ102_4" function="internal">
        <lane id=":gneJ102_4_0" index="0" speed="6.51" length="9.03" shape="-207.20,-501.60 -204.75,-501.95 -203.00,-503.00 -201.95,-504.75 -201.60,-507.20"/>
    </edge>
    <edge id=":gneJ102_5" function="internal">
        <lane id=":gneJ102_5_0" index="0" speed="8.00" length="14.19" shape="-207.20,-501.60 -203.35,-501.05 -200.60,-499.40 -198.95,-496.65 -198.40,-492.80"/>
    </edge>
    <edge id=":gneJ103_0" function="internal">
        <lane id=":gneJ103_0_0" index="0" speed="13.89" length="14.40" shape="-101.60,-492.80 -101.60,-507.20"/>
    </edge>
    <edge id=":gneJ103_1" function="internal">
        <lane id=":gneJ103_1_0" index="0" speed="8.00" length="5.93" shape="-101.60,-492.80 -101.05,-496.65 -100.00,-498.40"/>
    </edge>
    <edge id=":gneJ103_6" function="internal">
        <lane id=":gneJ103_6_0" index="0" speed="8.00" length="8.26" shape="-100.00,-498.40 -99.40,-499.40 -96.65,-501.05 -92.80,-501.60"/>
    </edge>
    <edge id=":gneJ103_2" function="internal">
        <lane id=":gneJ103_2_0" index="0" speed="6.51" length="9.03" shape="-92.80,-498.40 -95.25,-498.05 -97.00,-497.00 -98.05,-495.25 -98.40,-492.80"/>
    </edge>
    <edge id=":gneJ103_3" function="internal">
        <lane id=":gneJ103_3_0" index="0" speed="8.00" length="14.19" shape="-92.80,-498.40 -96.65,-498.95 -99.40,-500.60 -101.05,-503.35 -101.60,-507.20"/>
    </edge>
    <edge id=":gneJ103_4" function="internal">
        <lane id=":gneJ103_4_0" index="0" speed="6.51" length="9.03" shape="-98.40,-507.20 -98.05,-504.75 -97.00,-503.00 -95.25,-501.95 -92.80,-501.60"/>
    </edge>
    <edge id=":gneJ103_5" function="internal">
        <lane id=":gneJ103_5_0" index="0" speed="13.89" length="14.40" shape="-98.40,-507.20 -98.40,-492.80"/>
    </edge>
    <edge id=":gneJ104_0" function="internal">
        <lane id=":gneJ104_0_0" index="0" speed="6.51" length="9.03" shape="-1.60,-492.80 -1.95,-495.25 -3.00,-497.00 -4.75,-498.05 -7.20,-498.40"/>
    </edge>
    <edge id=":gneJ104_1" function="internal">
        <lane id=":gneJ104_1_0" index="0" speed="13.89" length="14.40" shape="-1.60,-492.80 -1.60,-507.20"/>
    </edge>
    <edge id=":gneJ104_2" function="internal">
        <lane id=":gneJ104_2_0" index="0" speed="8.00" length="5.93" shape="-1.60,-492.80 -1.05,-496.65 -0.00,-498.40"/>
    </edge>
    <edge id=":gneJ104_12" function="internal">
        <lane id=":gneJ104_12_0" index="0" speed="8.00" length="8.26" shape="-0.00,-498.40 0.60,-499.40 3.35,-501.05 7.20,-501.60"/>
    </edge>
    <edge id=":gneJ104_3" function="internal">
        <lane id=":gneJ104_3_0" index="0" speed="6.51" length="9.03" shape="7.20,-498.40 4.75,-498.05 3.00,-497.00 1.95,-495.25 1.60,-492.80"/>
    </edge>
    <edge id=":gneJ104_4" function="internal">
        <lane id=":gneJ104_4_0" index="0" speed="13.89" length="14.40" shape="7.20,-498.40 -7.20,-498.40"/>
    </edge>
    <edge id=":gneJ104_5" function="internal">
        <lane id=":gneJ104_5_0" index="0" speed="8.00" length="14.19" shape="7.20,-498.40 3.35,-498.95 0.60,-500.60 -1.05,-503.35 -1.60,-507.20"/>
    </edge>
    <edge id=":gneJ104_6" function="internal">
        <lane id=":gneJ104_6_0" index="0" speed="6.51" length="9.03" shape="1.60,-507.20 1.95,-504.75 3.00,-503.00 4.75,-501.95 7.20,-501.60"/>
    </edge>
    <edge id=":gneJ104_7" function="internal">
        <lane id=":gneJ104_7_0" index="0" speed="13.89" length="14.40" shape="1.60,-507.20 1.60,-492.80"/>
    </edge>
    <edge id=":gneJ104_8" function="internal">
        <lane id=":gneJ104_8_0" index="0" speed="8.00" length="5.93" shape="1.60,-507.20 1.05,-503.35 0.00,-501.60"/>
    </edge>
    <edge id=":gneJ104_13" function="internal">
        <lane id=":gneJ104_13_0" index="0" speed="8.00" length="8.26" shape="0.00,-501.60 -0.60,-500.60 -3.35,-498.95 -7.20,-498.40"/>
    </edge>
    <edge id=":gneJ104_9" function="internal">
        <lane id=":gneJ104_9_0" index="0" speed="6.51" length="9.03" shape="-7.20,-501.60 -4.75,-501.95 -3.00,-503.00 -1.95,-504.75 -1.60,-507.20"/>
    </edge>
    <edge id=":gneJ104_10" function="internal">
        <lane id=":gneJ104_10_0" index="0" speed="13.89" length="14.40" shape="-7.20,-501.60 7.20,-501.60"/>
    </edge>
    <edge id=":gneJ104_11" function="internal">
        <lane id=":gneJ104_11_0" index="0" speed="8.00" length="14.19" shape="-7.20,-501.60 -3.35,-501.05 -0.60,-499.40 1.05,-496.65 1.60,-492.80"/>
    </edge>
    <edge id=":gneJ110_0" function="internal">
        <lane id=":gneJ110_0_0" index="0" speed="6.08" length="7.74" shape="-401.60,-596.80 -401.30,-598.90 -400.40,-600.40 -398.90,-601.30 -396.80,-601.60"/>
    </edge>
    <edge id=":gneJ110_1" function="internal">
        <lane id=":gneJ110_1_0" index="0" speed="3.90" length="2.58" shape="-396.80,-598.40 -397.50,-598.30 -398.00,-598.00 -398.30,-597.50 -398.40,-596.80"/>
    </edge>
    <edge id=":gneJ111_0" function="internal">
        <lane id=":gneJ111_0_0" index="0" speed="6.51" length="9.03" shape="-301.60,-592.80 -301.95,-595.25 -303.00,-597.00 -304.75,-598.05 -307.20,-598.40"/>
    </edge>
    <edge id=":gneJ111_1" function="internal">
        <lane id=":gneJ111_1_0" index="0" speed="8.00" length="14.19" shape="-301.60,-592.80 -301.05,-596.65 -299.40,-599.40 -296.65,-601.05 -292.80,-601.60"/>
    </edge>
    <edge id=":gneJ111_2" function="internal">
        <lane id=":gneJ111_2_0" index="0" speed="6.51" length="9.03" shape="-292.80,-598.40 -295.25,-598.05 -297.00,-597.00 -298.05,-595.25 -298.40,-592.80"/>
    </edge>
    <edge id=":gneJ111_3" function="internal">
        <lane id=":gneJ111_3_0" index="0" speed="13.89" length="14.40" shape="-292.80,-598.40 -307.20,-598.40"/>
    </edge>
    <edge id=":gneJ111_4" function="internal">
        <lane id=":gneJ111_4_0" index="0" speed="13.89" length="14.40" shape="-307.20,-601.60 -292.80,-601.60"/>
    </edge>
    <edge id=":gneJ111_5" function="internal">
        <lane id=":gneJ111_5_0" index="0" speed="8.00" length="5.93" shape="-307.20,-601.60 -303.35,-601.05 -301.60,-600.00"/>
    </edge>
    <edge id=":gneJ111_6" function="internal">
        <lane id=":gneJ111_6_0" index="0" speed="8.00" length="8.26" shape="-301.60,-600.00 -300.60,-599.40 -298.95,-596.65 -298.40,-592.80"/>
    </edge>
    <edge id=":gneJ112_0" function="internal">
        <lane id=":gneJ112_0_0" index="0" speed="6.51" length="9.03" shape="-201.60,-592.80 -201.95,-595.25 -203.00,-597.00 -204.75,-598.05 -207.20,-598.40"/>
    </edge>
    <edge id=":gneJ112_1" function="internal">
        <lane id=":gneJ112_1_0" index="0" speed="8.00" length="14.19" shape="-201.60,-592.80 -201.05,-596.65 -199.40,-599.40 -196.65,-601.05 -192.80,-601.60"/>
    </edge>
    <edge id=":gneJ112_2" function="internal">
        <lane id=":gneJ112_2_0" index="0" speed="6.51" length="9.03" shape="-192.80,-598.40 -195.25,-598.05 -197.00,-597.00 -198.05,-595.25 -198.40,-592.80"/>
    </edge>
    <edge id=":gneJ112_3" function="internal">
        <lane id=":gneJ112_3_0" index="0" speed="13.89" length="14.40" shape="-192.80,-598.40 -207.20,-598.40"/>
    </edge>
    <edge id=":gneJ112_4" function="internal">
        <lane id=":gneJ112_4_0" index="0" speed="13.89" length="14.40" shape="-207.20,-601.60 -192.80,-601.60"/>
    </edge>
    <edge id=":gneJ112_5" function="internal">
        <lane id=":gneJ112_5_0" index="0" speed="8.00" length="5.93" shape="-207.20,-601.60 -203.35,-601.05 -201.60,-600.00"/>
    </edge>
    <edge id=":gneJ112_6" function="internal">
        <lane id=":gneJ112_6_0" index="0" speed="8.00" length="8.26" shape="-201.60,-600.00 -200.60,-599.40 -198.95,-596.65 -198.40,-592.80"/>
    </edge>
    <edge id=":gneJ113_0" function="internal">
        <lane id=":gneJ113_0_0" index="0" speed="6.51" length="9.03" shape="-101.60,-592.80 -101.95,-595.25 -103.00,-597.00 -104.75,-598.05 -107.20,-598.40"/>
    </edge>
    <edge id=":gneJ113_1" function="internal">
        <lane id=":gneJ113_1_0" index="0" speed="8.00" length="14.19" shape="-101.60,-592.80 -101.05,-596.65 -99.40,-599.40 -96.65,-601.05 -92.80,-601.60"/>
    </edge>
    <edge id=":gneJ113_2" function="internal">
        <lane id=":gneJ113_2_0" index="0" speed="6.51" length="9.03" shape="-92.80,-598.40 -95.25,-598.05 -97.00,-597.00 -98.05,-595.25 -98.40,-592.80"/>
    </edge>
    <edge id=":gneJ113_3" function="internal">
        <lane id=":gneJ113_3_0" index="0" speed="13.89" length="14.40" shape="-92.80,-598.40 -107.20,-598.40"/>
    </edge>
    <edge id=":gneJ113_4" function="internal">
        <lane id=":gneJ113_4_0" index="0" speed="13.89" length="14.40" shape="-107.20,-601.60 -92.80,-601.60"/>
    </edge>
    <edge id=":gneJ113_5" function="internal">
        <lane id=":gneJ113_5_0" index="0" speed="8.00" length="5.93" shape="-107.20,-601.60 -103.35,-601.05 -101.60,-600.00"/>
    </edge>
    <edge id=":gneJ113_6" function="internal">
        <lane id=":gneJ113_6_0" index="0" speed="8.00" length="8.26" shape="-101.60,-600.00 -100.60,-599.40 -98.95,-596.65 -98.40,-592.80"/>
    </edge>
    <edge id=":gneJ114_0" function="internal">
        <lane id=":gneJ114_0_0" index="0" speed="6.51" length="9.03" shape="-1.60,-592.80 -1.95,-595.25 -3.00,-597.00 -4.75,-598.05 -7.20,-598.40"/>
    </edge>
    <edge id=":gneJ114_1" function="internal">
        <lane id=":gneJ114_1_0" index="0" speed="8.00" length="14.19" shape="-1.60,-592.80 -1.05,-596.65 0.60,-599.40 3.35,-601.05 7.20,-601.60"/>
    </edge>
    <edge id=":gneJ114_2" function="internal">
        <lane id=":gneJ114_2_0" index="0" speed="6.51" length="9.03" shape="7.20,-598.40 4.75,-598.05 3.00,-597.00 1.95,-595.25 1.60,-592.80"/>
    </edge>
    <edge id=":gneJ114_3" function="internal">
        <lane id=":gneJ114_3_0" index="0" speed="13.89" length="14.40" shape="7.20,-598.40 -7.20,-598.40"/>
    </edge>
    <edge id=":gneJ114_4" function="internal">
        <lane id=":gneJ114_4_0" index="0" speed="13.89" length="14.40" shape="-7.20,-601.60 7.20,-601.60"/>
    </edge>
    <edge id=":gneJ114_5" function="internal">
        <lane id=":gneJ114_5_0" index="0" speed="8.00" length="5.93" shape="-7.20,-601.60 -3.35,-601.05 -1.60,-600.00"/>
    </edge>
    <edge id=":gneJ114_6" function="internal">
        <lane id=":gneJ114_6_0" index="0" speed="8.00" length="8.26" shape="-1.60,-600.00 -0.60,-599.40 1.05,-596.65 1.60,-592.80"/>
    </edge>
    <edge id=":gneJ115_0" function="internal">
        <lane id=":gneJ115_0_0" index="0" speed="3.90" length="2.58" shape="98.40,-596.80 98.30,-597.50 98.00,-598.00 97.50,-598.30 96.80,-598.40"/>
    </edge>
    <edge id=":gneJ115_1" function="internal">
        <lane id=":gneJ115_1_0" index="0" speed="6.08" length="7.74" shape="96.80,-601.60 98.90,-601.30 100.40,-600.40 101.30,-598.90 101.60,-596.80"/>
    </edge>
    <edge id=":gneJ75_0" function="internal">
        <lane id=":gneJ75_0_0" index="0" speed="9.73" length="21.49" shape="-388.27,-98.40 -394.10,-99.23 -398.27,-101.73 -400.77,-105.90 -401.60,-111.73"/>
    </edge>
    <edge id=":gneJ75_1" function="internal">
        <lane id=":gneJ75_1_0" index="0" speed="7.42" length="11.43" shape="-388.27,-98.40 -394.41,-99.09 -397.21,-101.16 -396.94,-102.91"/>
    </edge>
    <edge id=":gneJ75_6" function="internal">
        <lane id=":gneJ75_6_0" index="0" speed="7.42" length="7.88" shape="-396.94,-102.91 -396.69,-104.60 -392.84,-109.42"/>
    </edge>
    <edge id=":gneJ75_2" function="internal">
        <lane id=":gneJ75_2_0" index="0" speed="5.47" length="9.74" shape="-390.58,-107.16 -392.52,-104.73 -392.78,-102.99 -391.37,-101.95 -388.27,-101.60"/>
    </edge>
    <edge id=":gneJ75_3" function="internal">
        <lane id=":gneJ75_3_0" index="0" speed="7.42" length="19.31" shape="-390.58,-107.16 -395.40,-103.31 -398.84,-102.79 -400.91,-105.59 -401.60,-111.73"/>
    </edge>
    <edge id=":gneJ75_4" function="internal">
        <lane id=":gneJ75_4_0" index="0" speed="5.47" length="9.74" shape="-398.40,-111.73 -398.05,-108.63 -397.01,-107.22 -395.27,-107.48 -392.84,-109.42"/>
    </edge>
    <edge id=":gneJ75_5" function="internal">
        <lane id=":gneJ75_5_0" index="0" speed="8.54" length="16.33" shape="-398.40,-111.73 -397.77,-107.30 -395.87,-104.13 -392.70,-102.23 -388.27,-101.60"/>
    </edge>
    <edge id=":gneJ76_0" function="internal">
        <lane id=":gneJ76_0_0" index="0" speed="13.89" length="14.40" shape="-292.80,-98.40 -307.20,-98.40"/>
    </edge>
    <edge id=":gneJ76_1" function="internal">
        <lane id=":gneJ76_1_0" index="0" speed="3.65" length="4.67" shape="-298.40,-107.20 -299.20,-106.00 -300.00,-105.60 -300.80,-106.00 -301.60,-107.20"/>
    </edge>
    <edge id=":gneJ76_2" function="internal">
        <lane id=":gneJ76_2_0" index="0" speed="13.89" length="14.40" shape="-307.20,-101.60 -292.80,-101.60"/>
    </edge>
    <edge id=":gneJ77_0" function="internal">
        <lane id=":gneJ77_0_0" index="0" speed="13.89" length="14.40" shape="-192.80,-98.40 -207.20,-98.40"/>
    </edge>
    <edge id=":gneJ77_1" function="internal">
        <lane id=":gneJ77_1_0" index="0" speed="8.00" length="5.93" shape="-192.80,-98.40 -196.65,-98.95 -198.40,-100.00"/>
    </edge>
    <edge id=":gneJ77_5" function="internal">
        <lane id=":gneJ77_5_0" index="0" speed="8.00" length="8.26" shape="-198.40,-100.00 -199.40,-100.60 -201.05,-103.35 -201.60,-107.20"/>
    </edge>
    <edge id=":gneJ77_2" function="internal">
        <lane id=":gneJ77_2_0" index="0" speed="3.65" length="4.67" shape="-198.40,-107.20 -199.20,-106.00 -200.00,-105.60 -200.80,-106.00 -201.60,-107.20"/>
    </edge>
    <edge id=":gneJ77_3" function="internal">
        <lane id=":gneJ77_3_0" index="0" speed="6.51" length="9.03" shape="-207.20,-101.60 -204.75,-101.95 -203.00,-103.00 -201.95,-104.75 -201.60,-107.20"/>
    </edge>
    <edge id=":gneJ77_4" function="internal">
        <lane id=":gneJ77_4_0" index="0" speed="13.89" length="14.40" shape="-207.20,-101.60 -192.80,-101.60"/>
    </edge>
    <edge id=":gneJ78_0" function="internal">
        <lane id=":gneJ78_0_0" index="0" speed="13.89" length="14.40" shape="-92.80,-98.40 -107.20,-98.40"/>
    </edge>
    <edge id=":gneJ78_1" function="internal">
        <lane id=":gneJ78_1_0" index="0" speed="8.00" length="5.93" shape="-92.80,-98.40 -96.65,-98.95 -98.40,-100.00"/>
    </edge>
    <edge id=":gneJ78_5" function="internal">
        <lane id=":gneJ78_5_0" index="0" speed="8.00" length="8.26" shape="-98.40,-100.00 -99.40,-100.60 -101.05,-103.35 -101.60,-107.20"/>
    </edge>
    <edge id=":gneJ78_2" function="internal">
        <lane id=":gneJ78_2_0" index="0" speed="3.65" length="4.67" shape="-98.40,-107.20 -99.20,-106.00 -100.00,-105.60 -100.80,-106.00 -101.60,-107.20"/>
    </edge>
    <edge id=":gneJ78_3" function="internal">
        <lane id=":gneJ78_3_0" index="0" speed="6.51" length="9.03" shape="-107.20,-101.60 -104.75,-101.95 -103.00,-103.00 -101.95,-104.75 -101.60,-107.20"/>
    </edge>
    <edge id=":gneJ78_4" function="internal">
        <lane id=":gneJ78_4_0" index="0" speed="13.89" length="14.40" shape="-107.20,-101.60 -92.80,-101.60"/>
    </edge>
    <edge id=":gneJ79_0" function="internal">
        <lane id=":gneJ79_0_0" index="0" speed="13.89" length="14.40" shape="7.20,-98.40 -7.20,-98.40"/>
    </edge>
    <edge id=":gneJ79_1" function="internal">
        <lane id=":gneJ79_1_0" index="0" speed="8.00" length="5.93" shape="7.20,-98.40 3.35,-98.95 1.60,-100.00"/>
    </edge>
    <edge id=":gneJ79_6" function="internal">
        <lane id=":gneJ79_6_0" index="0" speed="8.00" length="8.26" shape="1.60,-100.00 0.60,-100.60 -1.05,-103.35 -1.60,-107.20"/>
    </edge>
    <edge id=":gneJ79_2" function="internal">
        <lane id=":gneJ79_2_0" index="0" speed="6.51" length="9.03" shape="1.60,-107.20 1.95,-104.75 3.00,-103.00 4.75,-101.95 7.20,-101.60"/>
    </edge>
    <edge id=":gneJ79_3" function="internal">
        <lane id=":gneJ79_3_0" index="0" speed="8.00" length="14.19" shape="1.60,-107.20 1.05,-103.35 -0.60,-100.60 -3.35,-98.95 -7.20,-98.40"/>
    </edge>
    <edge id=":gneJ79_4" function="internal">
        <lane id=":gneJ79_4_0" index="0" speed="6.51" length="9.03" shape="-7.20,-101.60 -4.75,-101.95 -3.00,-103.00 -1.95,-104.75 -1.60,-107.20"/>
    </edge>
    <edge id=":gneJ79_5" function="internal">
        <lane id=":gneJ79_5_0" index="0" speed="13.89" length="14.40" shape="-7.20,-101.60 7.20,-101.60"/>
    </edge>
    <edge id=":gneJ80_0" function="internal">
        <lane id=":gneJ80_0_0" index="0" speed="6.08" length="7.74" shape="101.60,-103.20 101.30,-101.10 100.40,-99.60 98.90,-98.70 96.80,-98.40"/>
    </edge>
    <edge id=":gneJ80_1" function="internal">
        <lane id=":gneJ80_1_0" index="0" speed="3.90" length="2.58" shape="96.80,-101.60 97.50,-101.70 98.00,-102.00 98.30,-102.50 98.40,-103.20"/>
    </edge>
    <edge id=":gneJ81_0" function="internal">
        <lane id=":gneJ81_0_0" index="0" speed="6.51" length="9.03" shape="98.40,-192.80 98.05,-195.25 97.00,-197.00 95.25,-198.05 92.80,-198.40"/>
    </edge>
    <edge id=":gneJ81_1" function="internal">
        <lane id=":gneJ81_1_0" index="0" speed="13.89" length="14.40" shape="98.40,-192.80 98.40,-207.20"/>
    </edge>
    <edge id=":gneJ81_2" function="internal">
        <lane id=":gneJ81_2_0" index="0" speed="13.89" length="14.40" shape="101.60,-207.20 101.60,-192.80"/>
    </edge>
    <edge id=":gneJ81_3" function="internal">
        <lane id=":gneJ81_3_0" index="0" speed="8.00" length="5.93" shape="101.60,-207.20 101.05,-203.35 100.00,-201.60"/>
    </edge>
    <edge id=":gneJ81_6" function="internal">
        <lane id=":gneJ81_6_0" index="0" speed="8.00" length="8.26" shape="100.00,-201.60 99.40,-200.60 96.65,-198.95 92.80,-198.40"/>
    </edge>
    <edge id=":gneJ81_4" function="internal">
        <lane id=":gneJ81_4_0" index="0" speed="6.51" length="9.03" shape="92.80,-201.60 95.25,-201.95 97.00,-203.00 98.05,-204.75 98.40,-207.20"/>
    </edge>
    <edge id=":gneJ81_5" function="internal">
        <lane id=":gneJ81_5_0" index="0" speed="8.00" length="14.19" shape="92.80,-201.60 96.65,-201.05 99.40,-199.40 101.05,-196.65 101.60,-192.80"/>
    </edge>
    <edge id=":gneJ82_0" function="internal">
        <lane id=":gneJ82_0_0" index="0" speed="6.51" length="9.03" shape="98.40,-292.80 98.05,-295.25 97.00,-297.00 95.25,-298.05 92.80,-298.40"/>
    </edge>
    <edge id=":gneJ82_1" function="internal">
        <lane id=":gneJ82_1_0" index="0" speed="13.89" length="14.40" shape="98.40,-292.80 98.40,-307.20"/>
    </edge>
    <edge id=":gneJ82_2" function="internal">
        <lane id=":gneJ82_2_0" index="0" speed="13.89" length="14.40" shape="101.60,-307.20 101.60,-292.80"/>
    </edge>
    <edge id=":gneJ82_3" function="internal">
        <lane id=":gneJ82_3_0" index="0" speed="8.00" length="5.93" shape="101.60,-307.20 101.05,-303.35 100.00,-301.60"/>
    </edge>
    <edge id=":gneJ82_6" function="internal">
        <lane id=":gneJ82_6_0" index="0" speed="8.00" length="8.26" shape="100.00,-301.60 99.40,-300.60 96.65,-298.95 92.80,-298.40"/>
    </edge>
    <edge id=":gneJ82_4" function="internal">
        <lane id=":gneJ82_4_0" index="0" speed="6.51" length="9.03" shape="92.80,-301.60 95.25,-301.95 97.00,-303.00 98.05,-304.75 98.40,-307.20"/>
    </edge>
    <edge id=":gneJ82_5" function="internal">
        <lane id=":gneJ82_5_0" index="0" speed="8.00" length="14.19" shape="92.80,-301.60 96.65,-301.05 99.40,-299.40 101.05,-296.65 101.60,-292.80"/>
    </edge>
    <edge id=":gneJ83_0" function="internal">
        <lane id=":gneJ83_0_0" index="0" speed="6.51" length="9.03" shape="98.40,-392.80 98.05,-395.25 97.00,-397.00 95.25,-398.05 92.80,-398.40"/>
    </edge>
    <edge id=":gneJ83_1" function="internal">
        <lane id=":gneJ83_1_0" index="0" speed="13.89" length="14.40" shape="98.40,-392.80 98.40,-407.20"/>
    </edge>
    <edge id=":gneJ83_2" function="internal">
        <lane id=":gneJ83_2_0" index="0" speed="13.89" length="14.40" shape="101.60,-407.20 101.60,-392.80"/>
    </edge>
    <edge id=":gneJ83_3" function="internal">
        <lane id=":gneJ83_3_0" index="0" speed="8.00" length="5.93" shape="101.60,-407.20 101.05,-403.35 100.00,-401.60"/>
    </edge>
    <edge id=":gneJ83_6" function="internal">
        <lane id=":gneJ83_6_0" index="0" speed="8.00" length="8.26" shape="100.00,-401.60 99.40,-400.60 96.65,-398.95 92.80,-398.40"/>
    </edge>
    <edge id=":gneJ83_4" function="internal">
        <lane id=":gneJ83_4_0" index="0" speed="6.51" length="9.03" shape="92.80,-401.60 95.25,-401.95 97.00,-403.00 98.05,-404.75 98.40,-407.20"/>
    </edge>
    <edge id=":gneJ83_5" function="internal">
        <lane id=":gneJ83_5_0" index="0" speed="8.00" length="14.19" shape="92.80,-401.60 96.65,-401.05 99.40,-399.40 101.05,-396.65 101.60,-392.80"/>
    </edge>
    <edge id=":gneJ84_0" function="internal">
        <lane id=":gneJ84_0_0" index="0" speed="6.51" length="9.03" shape="98.40,-492.80 98.05,-495.25 97.00,-497.00 95.25,-498.05 92.80,-498.40"/>
    </edge>
    <edge id=":gneJ84_1" function="internal">
        <lane id=":gneJ84_1_0" index="0" speed="13.89" length="14.40" shape="98.40,-492.80 98.40,-507.20"/>
    </edge>
    <edge id=":gneJ84_2" function="internal">
        <lane id=":gneJ84_2_0" index="0" speed="13.89" length="14.40" shape="101.60,-507.20 101.60,-492.80"/>
    </edge>
    <edge id=":gneJ84_3" function="internal">
        <lane id=":gneJ84_3_0" index="0" speed="8.00" length="5.93" shape="101.60,-507.20 101.05,-503.35 100.00,-501.60"/>
    </edge>
    <edge id=":gneJ84_6" function="internal">
        <lane id=":gneJ84_6_0" index="0" speed="8.00" length="8.26" shape="100.00,-501.60 99.40,-500.60 96.65,-498.95 92.80,-498.40"/>
    </edge>
    <edge id=":gneJ84_4" function="internal">
        <lane id=":gneJ84_4_0" index="0" speed="6.51" length="9.03" shape="92.80,-501.60 95.25,-501.95 97.00,-503.00 98.05,-504.75 98.40,-507.20"/>
    </edge>
    <edge id=":gneJ84_5" function="internal">
        <lane id=":gneJ84_5_0" index="0" speed="8.00" length="14.19" shape="92.80,-501.60 96.65,-501.05 99.40,-499.40 101.05,-496.65 101.60,-492.80"/>
    </edge>
    <edge id=":gneJ85_0" function="internal">
        <lane id=":gneJ85_0_0" index="0" speed="6.51" length="9.03" shape="-1.60,-192.80 -1.95,-195.25 -3.00,-197.00 -4.75,-198.05 -7.20,-198.40"/>
    </edge>
    <edge id=":gneJ85_1" function="internal">
        <lane id=":gneJ85_1_0" index="0" speed="13.89" length="14.40" shape="-1.60,-192.80 -1.60,-207.20"/>
    </edge>
    <edge id=":gneJ85_2" function="internal">
        <lane id=":gneJ85_2_0" index="0" speed="8.00" length="5.93" shape="-1.60,-192.80 -1.05,-196.65 0.00,-198.40"/>
    </edge>
    <edge id=":gneJ85_12" function="internal">
        <lane id=":gneJ85_12_0" index="0" speed="8.00" length="8.26" shape="0.00,-198.40 0.60,-199.40 3.35,-201.05 7.20,-201.60"/>
    </edge>
    <edge id=":gneJ85_3" function="internal">
        <lane id=":gneJ85_3_0" index="0" speed="6.51" length="9.03" shape="7.20,-198.40 4.75,-198.05 3.00,-197.00 1.95,-195.25 1.60,-192.80"/>
    </edge>
    <edge id=":gneJ85_4" function="internal">
        <lane id=":gneJ85_4_0" index="0" speed="13.89" length="14.40" shape="7.20,-198.40 -7.20,-198.40"/>
    </edge>
    <edge id=":gneJ85_5" function="internal">