<?xml version="1.0" encoding="UTF-8"?>

<!-- generated on 2022-05-05 21:03:49 by Eclipse SUMO netedit Version 1.10.0
<configuration xmlns:xsi="http://www.w3.org/2001/XMLSchema-instance" xsi:noNamespaceSchemaLocation="http://sumo.dlr.de/xsd/netconvertConfiguration.xsd">

    <input>
        <sumo-net-file value="C:\Users\sam\Documents\Work\Final%20Year\Dissertation\diss\Simulation\bath\bath.net.xml"/>
    </input>

    <output>
        <output-file value="C:\Users\sam\Documents\Work\Final%20Year\Dissertation\diss\Simulation\bath\bath.net.xml"/>
    </output>

    <processing>
        <geometry.min-radius.fix.railways value="false"/>
        <geometry.max-grade.fix value="false"/>
        <offset.disable-normalization value="true"/>
        <lefthand value="true"/>
    </processing>

    <junctions>
        <no-turnarounds value="true"/>
        <junctions.corner-detail value="5"/>
        <junctions.limit-turn-speed value="5.5"/>
        <rectangular-lane-cut value="false"/>
    </junctions>

    <pedestrian>
        <walkingareas value="false"/>
    </pedestrian>

    <report>
        <aggregate-warnings value="5"/>
    </report>

</configuration>
-->

<net version="1.9" junctionCornerDetail="5" lefthand="true" limitTurnSpeed="5.50" xmlns:xsi="http://www.w3.org/2001/XMLSchema-instance" xsi:noNamespaceSchemaLocation="http://sumo.dlr.de/xsd/net_file.xsd">

    <location netOffset="-542694.48,-5691444.89" convBoundary="261.79,453.33,2608.05,2012.29" origBoundary="-2.389243,51.372456,-2.343025,51.394913" projParameter="+proj=utm +zone=30 +ellps=WGS84 +datum=WGS84 +units=m +no_defs"/>

    <type id="highway.bus_guideway" priority="1" numLanes="1" speed="27.78" allow="bus" oneway="1"/>
    <type id="highway.ford" priority="1" numLanes="1" speed="2.78" allow="army" oneway="1"/>
    <type id="highway.living_street" priority="2" numLanes="1" speed="2.78" disallow="tram rail_urban rail rail_electric rail_fast ship" oneway="1"/>
    <type id="highway.motorway" priority="14" numLanes="2" speed="39.44" allow="private emergency authority army vip passenger hov taxi bus coach delivery truck trailer motorcycle evehicle custom1 custom2" oneway="1"/>
    <type id="highway.motorway_link" priority="9" numLanes="1" speed="22.22" allow="private emergency authority army vip passenger hov taxi bus coach delivery truck trailer motorcycle evehicle custom1 custom2" oneway="1"/>
    <type id="highway.primary" priority="12" numLanes="2" speed="27.78" disallow="tram rail_urban rail rail_electric rail_fast ship" oneway="1"/>
    <type id="highway.primary_link" priority="7" numLanes="1" speed="22.22" disallow="tram rail_urban rail rail_electric rail_fast ship" oneway="1"/>
    <type id="highway.raceway" priority="15" numLanes="2" speed="83.33" allow="vip" oneway="1"/>
    <type id="highway.residential" priority="3" numLanes="1" speed="13.89" disallow="tram rail_urban rail rail_electric rail_fast ship" oneway="1"/>
    <type id="highway.secondary" priority="11" numLanes="1" speed="27.78" disallow="tram rail_urban rail rail_electric rail_fast ship" oneway="1"/>
    <type id="highway.secondary_link" priority="6" numLanes="1" speed="22.22" disallow="tram rail_urban rail rail_electric rail_fast ship" oneway="1"/>
    <type id="highway.tertiary" priority="10" numLanes="1" speed="22.22" disallow="tram rail_urban rail rail_electric rail_fast ship" oneway="1"/>
    <type id="highway.tertiary_link" priority="5" numLanes="1" speed="22.22" disallow="tram rail_urban rail rail_electric rail_fast ship" oneway="1"/>
    <type id="highway.trunk" priority="13" numLanes="2" speed="27.78" disallow="pedestrian bicycle tram rail_urban rail rail_electric rail_fast ship" oneway="1"/>
    <type id="highway.trunk_link" priority="8" numLanes="1" speed="22.22" disallow="pedestrian bicycle tram rail_urban rail rail_electric rail_fast ship" oneway="1"/>
    <type id="highway.unclassified" priority="4" numLanes="1" speed="13.89" disallow="tram rail_urban rail rail_electric rail_fast ship" oneway="1"/>
    <type id="highway.unsurfaced" priority="1" numLanes="1" speed="8.33" disallow="tram rail_urban rail rail_electric rail_fast ship" oneway="1"/>
    <type id="railway.highspeed" priority="21" numLanes="1" speed="69.44" allow="rail_fast" oneway="1"/>
    <type id="railway.light_rail" priority="19" numLanes="1" speed="27.78" allow="rail_urban" oneway="1"/>
    <type id="railway.preserved" priority="16" numLanes="1" speed="27.78" allow="rail" oneway="1"/>
    <type id="railway.rail" priority="20" numLanes="1" speed="44.44" allow="rail" oneway="1"/>
    <type id="railway.subway" priority="18" numLanes="1" speed="27.78" allow="rail_urban" oneway="1"/>
    <type id="railway.tram" priority="17" numLanes="1" speed="13.89" allow="tram" oneway="1"/>

    <edge id=":1075355263_0" function="internal">
        <lane id=":1075355263_0_0" index="0" disallow="pedestrian bicycle tram rail_urban rail rail_electric rail_fast ship" speed="13.41" length="18.79" shape="1078.30,808.33 1062.26,817.99"/>
        <lane id=":1075355263_0_1" index="1" disallow="pedestrian bicycle tram rail_urban rail rail_electric rail_fast ship" speed="13.41" length="18.79" shape="1078.30,808.33 1075.41,810.68 1072.54,813.54 1068.98,816.88 1064.05,820.64"/>
    </edge>
    <edge id=":1075355263_2" function="internal">
        <lane id=":1075355263_2_0" index="0" disallow="pedestrian bicycle tram rail_urban rail rail_electric rail_fast ship" speed="13.41" length="18.50" shape="1080.19,813.62 1074.61,813.02 1070.67,813.37 1067.01,814.94 1062.26,817.99"/>
        <lane id=":1075355263_2_1" index="1" disallow="pedestrian bicycle tram rail_urban rail rail_electric rail_fast ship" speed="13.41" length="18.50" shape="1080.77,816.94 1075.58,816.32 1071.90,816.53 1068.47,817.87 1064.05,820.64"/>
    </edge>
    <edge id=":1115426591_0" function="internal">
        <lane id=":1115426591_0_0" index="0" disallow="tram rail_urban rail rail_electric rail_fast ship" speed="3.65" length="4.67" shape="2133.72,641.74 2135.16,641.74 2135.94,641.30 2136.05,640.42 2135.50,639.08"/>
    </edge>
    <edge id=":126714_0" function="internal">
        <lane id=":126714_0_0" index="0" disallow="pedestrian bicycle tram rail_urban rail rail_electric rail_fast ship" speed="13.41" length="13.38" shape="836.00,956.15 833.33,958.45 830.78,960.41 828.02,961.97 824.74,963.09"/>
    </edge>
    <edge id=":126714_1" function="internal">
        <lane id=":126714_1_0" index="0" disallow="pedestrian bicycle tram rail_urban rail rail_electric rail_fast ship" speed="13.41" length="13.25" shape="837.55,959.70 824.74,963.09"/>
    </edge>
    <edge id=":126714_2" function="internal">
        <lane id=":126714_2_0" index="0" disallow="pedestrian bicycle tram rail_urban rail rail_electric rail_fast ship" speed="13.41" length="13.31" shape="825.48,966.20 838.35,962.80"/>
    </edge>
    <edge id=":126715_0" function="internal">
        <lane id=":126715_0_0" index="0" disallow="pedestrian bicycle tram rail_urban rail rail_electric rail_fast ship" speed="13.41" length="0.31" shape="1117.29,780.72 1117.02,780.87"/>
    </edge>
    <edge id=":126715_1" function="internal">
        <lane id=":126715_1_0" index="0" disallow="pedestrian bicycle tram rail_urban rail rail_electric rail_fast ship" speed="3.65" length="2.34" shape="1117.29,780.72 1116.59,781.98 1116.61,782.88"/>
    </edge>
    <edge id=":126715_4" function="internal">
        <lane id=":126715_4_0" index="0" disallow="pedestrian bicycle tram rail_urban rail rail_electric rail_fast ship" speed="3.65" length="2.34" shape="1116.61,782.88 1117.34,783.40 1118.77,783.56"/>
    </edge>
    <edge id=":126715_2" function="internal">
        <lane id=":126715_2_0" index="0" disallow="pedestrian bicycle tram rail_urban rail rail_electric rail_fast ship" speed="13.41" length="0.23" shape="1118.57,783.66 1118.77,783.56"/>
    </edge>
    <edge id=":126715_3" function="internal">
        <lane id=":126715_3_0" index="0" disallow="pedestrian bicycle tram rail_urban rail rail_electric rail_fast ship" speed="3.65" length="2.34" shape="1118.57,783.66 1119.23,782.38 1119.19,781.49"/>
    </edge>
    <edge id=":126715_5" function="internal">
        <lane id=":126715_5_0" index="0" disallow="pedestrian bicycle tram rail_urban rail rail_electric rail_fast ship" speed="3.65" length="2.34" shape="1119.19,781.49 1118.45,780.98 1117.02,780.87"/>
    </edge>
    <edge id=":126719_0" function="internal">
        <lane id=":126719_0_0" index="0" disallow="pedestrian bicycle tram rail_urban rail rail_electric rail_fast ship" speed="13.33" length="24.21" shape="1778.95,549.81 1786.73,548.99 1793.15,549.40 1798.19,551.03 1801.86,553.89"/>
        <lane id=":126719_0_1" index="1" disallow="pedestrian bicycle tram rail_urban rail rail_electric rail_fast ship" speed="13.41" length="24.85" shape="1778.41,546.66 1785.13,545.69 1790.93,545.62 1796.43,546.90 1802.27,550.02"/>
    </edge>
    <edge id=":126719_2" function="internal">
        <lane id=":126719_2_0" index="0" disallow="pedestrian bicycle tram rail_urban rail rail_electric rail_fast ship" speed="13.41" length="24.39" shape="1778.41,546.66 1802.65,543.93"/>
    </edge>
    <edge id=":126983_0" function="internal">
        <lane id=":126983_0_0" index="0" disallow="pedestrian bicycle tram rail_urban rail rail_electric rail_fast ship" speed="13.41" length="0.18" shape="1515.74,643.27 1515.69,643.29 1515.66,643.30 1515.62,643.31 1515.57,643.33"/>
    </edge>
    <edge id=":126983_1" function="internal">
        <lane id=":126983_1_0" index="0" disallow="pedestrian bicycle tram rail_urban rail rail_electric rail_fast ship" speed="3.65" length="2.34" shape="1515.74,643.27 1514.92,644.46 1514.85,645.35"/>
    </edge>
    <edge id=":126983_4" function="internal">
        <lane id=":126983_4_0" index="0" disallow="pedestrian bicycle tram rail_urban rail rail_electric rail_fast ship" speed="3.65" length="2.34" shape="1514.85,645.35 1515.52,645.94 1516.93,646.24"/>
    </edge>
    <edge id=":126983_2" function="internal">
        <lane id=":126983_2_0" index="0" disallow="pedestrian bicycle tram rail_urban rail rail_electric rail_fast ship" speed="13.41" length="0.53" shape="1516.43,646.41 1516.58,646.37 1516.68,646.33 1516.78,646.30 1516.93,646.24"/>
    </edge>
    <edge id=":126983_3" function="internal">
        <lane id=":126983_3_0" index="0" disallow="pedestrian bicycle tram rail_urban rail rail_electric rail_fast ship" speed="3.65" length="2.34" shape="1516.43,646.41 1517.37,645.32 1517.54,644.44"/>
    </edge>
    <edge id=":126983_5" function="internal">
        <lane id=":126983_5_0" index="0" disallow="pedestrian bicycle tram rail_urban rail rail_electric rail_fast ship" speed="3.65" length="2.34" shape="1517.54,644.44 1516.94,643.78 1515.57,643.33"/>
    </edge>
    <edge id=":13804905_0" function="internal">
        <lane id=":13804905_0_0" index="0" disallow="tram rail_urban rail rail_electric rail_fast ship" speed="6.62" length="9.24" shape="1990.18,1393.10 1987.60,1392.99 1985.67,1392.13 1984.38,1390.50 1983.74,1388.12"/>
    </edge>
    <edge id=":13804905_1" function="internal">
        <lane id=":13804905_1_0" index="0" disallow="tram rail_urban rail rail_electric rail_fast ship" speed="7.90" length="14.42" shape="1990.18,1393.10 1986.31,1394.04 1983.74,1395.99 1982.47,1398.96 1982.51,1402.94"/>
    </edge>
    <edge id=":13804905_2" function="internal">
        <lane id=":13804905_2_0" index="0" disallow="tram rail_urban rail rail_electric rail_fast ship" speed="3.65" length="4.67" shape="1990.18,1393.10 1989.06,1394.01 1988.74,1394.84 1989.21,1395.60 1990.48,1396.29"/>
    </edge>
    <edge id=":13804905_3" function="internal">
        <lane id=":13804905_3_0" index="0" disallow="tram rail_urban rail rail_electric rail_fast ship" speed="6.38" length="9.04" shape="1985.67,1402.45 1985.65,1399.96 1986.44,1398.10 1988.05,1396.87 1990.48,1396.29"/>
    </edge>
    <edge id=":13804905_4" function="internal">
        <lane id=":13804905_4_0" index="0" disallow="tram rail_urban rail rail_electric rail_fast ship" speed="8.94" length="14.46" shape="1985.67,1402.45 1983.74,1388.12"/>
    </edge>
    <edge id=":13804905_5" function="internal">
        <lane id=":13804905_5_0" index="0" disallow="tram rail_urban rail rail_electric rail_fast ship" speed="3.65" length="4.67" shape="1985.67,1402.45 1984.70,1401.39 1983.85,1401.11 1983.12,1401.63 1982.51,1402.94"/>
    </edge>
    <edge id=":13804905_6" function="internal">
        <lane id=":13804905_6_0" index="0" disallow="tram rail_urban rail rail_electric rail_fast ship" speed="8.94" length="14.58" shape="1980.56,1388.49 1982.51,1402.94"/>
    </edge>
    <edge id=":13804905_7" function="internal">
        <lane id=":13804905_7_0" index="0" disallow="tram rail_urban rail rail_electric rail_fast ship" speed="8.10" length="14.32" shape="1980.56,1388.49 1981.56,1392.22 1983.54,1394.76 1986.51,1396.11 1990.48,1396.29"/>
    </edge>
    <edge id=":13804905_8" function="internal">
        <lane id=":13804905_8_0" index="0" disallow="tram rail_urban rail rail_electric rail_fast ship" speed="3.65" length="4.67" shape="1980.56,1388.49 1981.49,1389.59 1982.33,1389.89 1983.08,1389.40 1983.74,1388.12"/>
    </edge>
    <edge id=":13804907_0" function="internal">
        <lane id=":13804907_0_0" index="0" disallow="tram rail_urban rail rail_electric rail_fast ship" speed="3.65" length="4.67" shape="2026.66,1365.64 2025.83,1364.47 2025.01,1364.09 2024.23,1364.51 2023.46,1365.74"/>
    </edge>
    <edge id=":13804913_0" function="internal">
        <lane id=":13804913_0_0" index="0" disallow="tram rail_urban rail rail_electric rail_fast ship" speed="8.94" length="14.55" shape="2064.85,1351.17 2064.34,1365.72"/>
    </edge>
    <edge id=":13804913_1" function="internal">
        <lane id=":13804913_1_0" index="0" disallow="tram rail_urban rail rail_electric rail_fast ship" speed="8.01" length="14.27" shape="2064.85,1351.17 2065.21,1355.05 2066.73,1357.88 2069.43,1359.66 2073.29,1360.39"/>
    </edge>
    <edge id=":13804913_2" function="internal">
        <lane id=":13804913_2_0" index="0" disallow="tram rail_urban rail rail_electric rail_fast ship" speed="3.65" length="4.67" shape="2064.85,1351.17 2065.59,1352.41 2066.37,1352.85 2067.19,1352.49 2068.05,1351.33"/>
    </edge>
    <edge id=":13804913_3" function="internal">
        <lane id=":13804913_3_0" index="0" disallow="tram rail_urban rail rail_electric rail_fast ship" speed="6.51" length="9.09" shape="2073.43,1357.20 2070.97,1356.73 2069.25,1355.60 2068.28,1353.80 2068.05,1351.33"/>
    </edge>
    <edge id=":13804913_4" function="internal">
        <lane id=":13804913_4_0" index="0" disallow="tram rail_urban rail rail_electric rail_fast ship" speed="7.95" length="14.30" shape="2073.43,1357.20 2069.52,1357.58 2066.70,1359.12 2064.97,1361.84 2064.34,1365.72"/>
    </edge>
    <edge id=":13804913_5" function="internal">
        <lane id=":13804913_5_0" index="0" disallow="tram rail_urban rail rail_electric rail_fast ship" speed="3.65" length="4.67" shape="2073.43,1357.20 2072.20,1357.94 2071.76,1358.72 2072.12,1359.54 2073.29,1360.39"/>
    </edge>
    <edge id=":13804913_6" function="internal">
        <lane id=":13804913_6_0" index="0" disallow="tram rail_urban rail rail_electric rail_fast ship" speed="6.45" length="9.03" shape="2067.54,1365.78 2067.94,1363.32 2069.03,1361.61 2070.81,1360.63 2073.29,1360.39"/>
    </edge>
    <edge id=":13804913_7" function="internal">
        <lane id=":13804913_7_0" index="0" disallow="tram rail_urban rail rail_electric rail_fast ship" speed="8.94" length="14.45" shape="2067.54,1365.78 2068.05,1351.33"/>
    </edge>
    <edge id=":13804913_8" function="internal">
        <lane id=":13804913_8_0" index="0" disallow="tram rail_urban rail rail_electric rail_fast ship" speed="3.65" length="4.67" shape="2067.54,1365.78 2066.76,1364.56 2065.97,1364.15 2065.17,1364.53 2064.34,1365.72"/>
    </edge>
    <edge id=":13804921_0" function="internal">
        <lane id=":13804921_0_0" index="0" disallow="tram rail_urban rail rail_electric rail_fast ship" speed="8.94" length="15.43" shape="2047.96,1206.78 2034.97,1198.45"/>
    </edge>
    <edge id=":13804921_1" function="internal">
        <lane id=":13804921_1_0" index="0" disallow="tram rail_urban rail rail_electric rail_fast ship" speed="8.71" length="6.21" shape="2047.96,1206.78 2044.18,1205.03 2042.13,1204.94"/>
    </edge>
    <edge id=":13804921_2" function="internal">
        <lane id=":13804921_2_0" index="0" disallow="tram rail_urban rail rail_electric rail_fast ship" speed="3.65" length="2.34" shape="2047.96,1206.78 2046.51,1206.79 2045.74,1207.24"/>
    </edge>
    <edge id=":13804921_9" function="internal">
        <lane id=":13804921_9_0" index="0" disallow="tram rail_urban rail rail_electric rail_fast ship" speed="8.71" length="9.60" shape="2042.13,1204.94 2040.61,1204.88 2037.23,1206.33 2034.05,1209.37"/>
    </edge>
    <edge id=":13804921_10" function="internal">
        <lane id=":13804921_10_0" index="0" disallow="tram rail_urban rail rail_electric rail_fast ship" speed="3.65" length="2.34" shape="2045.74,1207.24 2045.63,1208.13 2046.20,1209.45"/>
    </edge>
    <edge id=":13804921_3" function="internal">
        <lane id=":13804921_3_0" index="0" disallow="tram rail_urban rail rail_electric rail_fast ship" speed="7.45" length="12.79" shape="2035.63,1212.69 2037.87,1209.71 2040.38,1208.17 2043.15,1208.09 2046.20,1209.45"/>
    </edge>
    <edge id=":13804921_4" function="internal">
        <lane id=":13804921_4_0" index="0" disallow="tram rail_urban rail rail_electric rail_fast ship" speed="8.59" length="15.90" shape="2035.63,1212.69 2037.75,1207.99 2038.35,1204.04 2037.43,1200.86 2034.97,1198.45"/>
    </edge>
    <edge id=":13804921_5" function="internal">
        <lane id=":13804921_5_0" index="0" disallow="tram rail_urban rail rail_electric rail_fast ship" speed="3.91" length="5.37" shape="2035.63,1212.69 2036.48,1211.27 2036.50,1210.24 2035.69,1209.61 2034.05,1209.37"/>
    </edge>
    <edge id=":13804921_6" function="internal">
        <lane id=":13804921_6_0" index="0" disallow="tram rail_urban rail rail_electric rail_fast ship" speed="6.46" length="9.66" shape="2033.26,1201.16 2035.15,1202.83 2035.91,1204.76 2035.54,1206.94 2034.05,1209.37"/>
    </edge>
    <edge id=":13804921_7" function="internal">
        <lane id=":13804921_7_0" index="0" disallow="tram rail_urban rail rail_electric rail_fast ship" speed="8.94" length="15.37" shape="2033.26,1201.16 2046.20,1209.45"/>
    </edge>
    <edge id=":13804921_8" function="internal">
        <lane id=":13804921_8_0" index="0" disallow="tram rail_urban rail rail_electric rail_fast ship" speed="3.65" length="2.34" shape="2033.26,1201.16 2034.71,1201.12 2035.47,1200.66"/>
    </edge>
    <edge id=":13804921_11" function="internal">
        <lane id=":13804921_11_0" index="0" disallow="tram rail_urban rail rail_electric rail_fast ship" speed="3.65" length="2.34" shape="2035.47,1200.66 2035.56,1199.77 2034.97,1198.45"/>
    </edge>
    <edge id=":13804935_0" function="internal">
        <lane id=":13804935_0_0" index="0" disallow="tram rail_urban rail rail_electric rail_fast ship" speed="5.89" length="8.86" shape="2201.35,1615.36 2199.83,1617.23 2198.13,1617.90 2196.25,1617.38 2194.20,1615.66"/>
    </edge>
    <edge id=":13804935_1" function="internal">
        <lane id=":13804935_1_0" index="0" disallow="tram rail_urban rail rail_electric rail_fast ship" speed="9.41" length="13.98" shape="2201.35,1615.36 2199.61,1619.12 2198.95,1622.56 2199.36,1625.69 2200.85,1628.51"/>
    </edge>
    <edge id=":13804935_2" function="internal">
        <lane id=":13804935_2_0" index="0" disallow="tram rail_urban rail rail_electric rail_fast ship" speed="3.68" length="4.79" shape="2201.35,1615.36 2201.12,1616.82 2201.44,1617.68 2202.32,1617.93 2203.76,1617.58"/>
    </edge>
    <edge id=":13804935_3" function="internal">
        <lane id=":13804935_3_0" index="0" disallow="tram rail_urban rail rail_electric rail_fast ship" speed="7.87" length="9.56" shape="2203.40,1626.57 2202.39,1624.65 2202.11,1622.51 2202.57,1620.15 2203.76,1617.58"/>
    </edge>
    <edge id=":13804935_4" function="internal">
        <lane id=":13804935_4_0" index="0" disallow="tram rail_urban rail rail_electric rail_fast ship" speed="8.94" length="14.28" shape="2203.40,1626.57 2201.16,1623.70 2198.94,1621.00 2196.64,1618.35 2194.20,1615.66"/>
    </edge>
    <edge id=":13804935_5" function="internal">
        <lane id=":13804935_5_0" index="0" disallow="tram rail_urban rail rail_electric rail_fast ship" speed="3.65" length="4.67" shape="2203.40,1626.57 2202.03,1626.10 2201.16,1626.26 2200.76,1627.07 2200.85,1628.51"/>
    </edge>
    <edge id=":13804935_6" function="internal">
        <lane id=":13804935_6_0" index="0" disallow="tram rail_urban rail rail_electric rail_fast ship" speed="8.94" length="13.97" shape="2191.85,1617.83 2194.26,1620.49 2196.49,1623.05 2198.64,1625.68 2200.85,1628.51"/>
    </edge>
    <edge id=":13804935_7" function="internal">
        <lane id=":13804935_7_0" index="0" disallow="tram rail_urban rail rail_electric rail_fast ship" speed="7.40" length="14.74" shape="2191.85,1617.83 2195.30,1620.75 2198.44,1621.68 2201.26,1620.62 2203.76,1617.58"/>
    </edge>
    <edge id=":13804935_8" function="internal">
        <lane id=":13804935_8_0" index="0" disallow="tram rail_urban rail rail_electric rail_fast ship" speed="3.65" length="4.67" shape="2191.85,1617.83 2193.25,1618.17 2194.11,1617.92 2194.43,1617.08 2194.20,1615.66"/>
    </edge>
    <edge id=":13804936_0" function="internal">
        <lane id=":13804936_0_0" index="0" disallow="tram rail_urban rail rail_electric rail_fast ship" speed="13.89" length="14.75" shape="2290.67,1477.56 2276.45,1481.46"/>
    </edge>
    <edge id=":13804936_1" function="internal">
        <lane id=":13804936_1_0" index="0" disallow="tram rail_urban rail rail_electric rail_fast ship" speed="8.21" length="6.17" shape="2290.67,1477.56 2287.12,1478.98 2285.46,1480.65"/>
    </edge>
    <edge id=":13804936_2" function="internal">
        <lane id=":13804936_2_0" index="0" disallow="tram rail_urban rail rail_electric rail_fast ship" speed="3.65" length="2.34" shape="2290.67,1477.56 2289.69,1478.61 2289.48,1479.49"/>
    </edge>
    <edge id=":13804936_9" function="internal">
        <lane id=":13804936_9_0" index="0" disallow="tram rail_urban rail rail_electric rail_fast ship" speed="8.21" length="8.28" shape="2285.46,1480.65 2284.83,1481.28 2283.79,1484.45 2284.00,1488.49"/>
    </edge>
    <edge id=":13804936_10" function="internal">
        <lane id=":13804936_10_0" index="0" disallow="tram rail_urban rail rail_electric rail_fast ship" speed="3.65" length="2.34" shape="2289.48,1479.49 2290.05,1480.17 2291.41,1480.67"/>
    </edge>
    <edge id=":13804936_3" function="internal">
        <lane id=":13804936_3_0" index="0" disallow="tram rail_urban rail rail_electric rail_fast ship" speed="6.75" length="9.47" shape="2287.15,1487.90 2286.99,1485.22 2287.65,1483.12 2289.12,1481.60 2291.41,1480.67"/>
    </edge>
    <edge id=":13804936_4" function="internal">
        <lane id=":13804936_4_0" index="0" disallow="tram rail_urban rail rail_electric rail_fast ship" speed="7.81" length="14.65" shape="2287.15,1487.90 2285.83,1484.04 2283.60,1481.68 2280.48,1480.82 2276.45,1481.46"/>
    </edge>
    <edge id=":13804936_5" function="internal">
        <lane id=":13804936_5_0" index="0" disallow="tram rail_urban rail rail_electric rail_fast ship" speed="3.65" length="4.67" shape="2287.15,1487.90 2286.14,1486.87 2285.28,1486.63 2284.57,1487.17 2284.00,1488.49"/>
    </edge>
    <edge id=":13804936_6" function="internal">
        <lane id=":13804936_6_0" index="0" disallow="tram rail_urban rail rail_electric rail_fast ship" speed="6.27" length="9.04" shape="2277.40,1484.52 2279.88,1484.12 2281.81,1484.65 2283.19,1486.11 2284.00,1488.49"/>
    </edge>
    <edge id=":13804936_7" function="internal">
        <lane id=":13804936_7_0" index="0" disallow="tram rail_urban rail rail_electric rail_fast ship" speed="13.89" length="14.53" shape="2277.40,1484.52 2291.41,1480.67"/>
    </edge>
    <edge id=":13804936_8" function="internal">
        <lane id=":13804936_8_0" index="0" disallow="tram rail_urban rail rail_electric rail_fast ship" speed="3.65" length="2.34" shape="2277.40,1484.52 2278.30,1483.40 2278.45,1482.51"/>
    </edge>
    <edge id=":13804936_11" function="internal">
        <lane id=":13804936_11_0" index="0" disallow="tram rail_urban rail rail_electric rail_fast ship" speed="3.65" length="2.34" shape="2278.45,1482.51 2277.83,1481.87 2276.45,1481.46"/>
    </edge>
    <edge id=":13804944_0" function="internal">
        <lane id=":13804944_0_0" index="0" disallow="bicycle tram rail_urban rail rail_electric rail_fast ship" speed="5.77" length="9.16" shape="2364.68,1625.64 2362.27,1626.86 2360.39,1626.82 2359.04,1625.51 2358.21,1622.94"/>
    </edge>
    <edge id=":13804944_1" function="internal">
        <lane id=":13804944_1_0" index="0" disallow="bicycle tram rail_urban rail rail_electric rail_fast ship" speed="13.41" length="15.04" shape="2364.68,1625.64 2352.33,1634.23"/>
    </edge>
    <edge id=":13804944_2" function="internal">
        <lane id=":13804944_2_0" index="0" disallow="bicycle tram rail_urban rail rail_electric rail_fast ship" speed="13.41" length="15.03" shape="2356.00,1639.48 2368.33,1630.89"/>
        <lane id=":13804944_2_1" index="1" disallow="bicycle tram rail_urban rail rail_electric rail_fast ship" speed="13.41" length="15.03" shape="2354.17,1636.85 2366.50,1628.26"/>
    </edge>
    <edge id=":13804944_4" function="internal">
        <lane id=":13804944_4_0" index="0" disallow="bicycle tram rail_urban rail rail_electric rail_fast ship" speed="10.04" length="5.47" shape="2354.17,1636.85 2356.59,1634.47 2357.48,1632.60"/>
    </edge>
    <edge id=":13804944_7" function="internal">
        <lane id=":13804944_7_0" index="0" disallow="bicycle tram rail_urban rail rail_electric rail_fast ship" speed="10.04" length="9.85" shape="2357.48,1632.60 2358.07,1631.35 2358.61,1627.51 2358.21,1622.94"/>
    </edge>
    <edge id=":13804944_5" function="internal">
        <lane id=":13804944_5_0" index="0" disallow="bicycle tram rail_urban rail rail_electric rail_fast ship" speed="8.83" length="11.68" shape="2355.06,1623.50 2355.41,1627.12 2355.07,1630.11 2354.05,1632.48 2352.33,1634.23"/>
    </edge>
    <edge id=":13804944_6" function="internal">
        <lane id=":13804944_6_0" index="0" disallow="bicycle tram rail_urban rail rail_electric rail_fast ship" speed="7.46" length="16.20" shape="2355.06,1623.50 2356.52,1628.04 2358.92,1630.35 2362.25,1630.42 2366.50,1628.26"/>
    </edge>
    <edge id=":13804945_0" function="internal">
        <lane id=":13804945_0_0" index="0" disallow="tram rail_urban rail rail_electric rail_fast ship" speed="8.94" length="14.35" shape="2274.89,1350.16 2262.75,1342.51"/>
    </edge>
    <edge id=":13804945_1" function="internal">
        <lane id=":13804945_1_0" index="0" disallow="tram rail_urban rail rail_electric rail_fast ship" speed="8.00" length="14.18" shape="2274.89,1350.16 2271.33,1348.59 2268.13,1348.53 2265.27,1349.99 2262.77,1352.96"/>
    </edge>
    <edge id=":13804945_2" function="internal">
        <lane id=":13804945_2_0" index="0" disallow="tram rail_urban rail rail_electric rail_fast ship" speed="3.65" length="4.67" shape="2274.89,1350.16 2273.45,1350.21 2272.68,1350.67 2272.60,1351.56 2273.19,1352.88"/>
    </edge>
    <edge id=":13804945_3" function="internal">
        <lane id=":13804945_3_0" index="0" disallow="tram rail_urban rail rail_electric rail_fast ship" speed="6.51" length="9.03" shape="2265.48,1354.66 2267.08,1352.77 2268.89,1351.84 2270.93,1351.88 2273.19,1352.88"/>
    </edge>
    <edge id=":13804945_4" function="internal">
        <lane id=":13804945_4_0" index="0" disallow="tram rail_urban rail rail_electric rail_fast ship" speed="8.02" length="14.17" shape="2265.48,1354.66 2267.06,1351.11 2267.13,1347.90 2265.69,1345.03 2262.75,1342.51"/>
    </edge>
    <edge id=":13804945_5" function="internal">
        <lane id=":13804945_5_0" index="0" disallow="tram rail_urban rail rail_electric rail_fast ship" speed="3.65" length="4.67" shape="2265.48,1354.66 2265.44,1353.22 2264.97,1352.45 2264.08,1352.37 2262.77,1352.96"/>
    </edge>
    <edge id=":13804945_6" function="internal">
        <lane id=":13804945_6_0" index="0" disallow="tram rail_urban rail rail_electric rail_fast ship" speed="6.53" length="9.04" shape="2261.03,1345.21 2262.91,1346.82 2263.82,1348.65 2263.77,1350.69 2262.77,1352.96"/>
    </edge>
    <edge id=":13804945_7" function="internal">
        <lane id=":13804945_7_0" index="0" disallow="tram rail_urban rail rail_electric rail_fast ship" speed="8.94" length="14.38" shape="2261.03,1345.21 2273.19,1352.88"/>
    </edge>
    <edge id=":13804945_8" function="internal">
        <lane id=":13804945_8_0" index="0" disallow="tram rail_urban rail rail_electric rail_fast ship" speed="3.65" length="4.67" shape="2261.03,1345.21 2262.47,1345.18 2263.24,1344.72 2263.33,1343.83 2262.75,1342.51"/>
    </edge>
    <edge id=":13804946_0" function="internal">
        <lane id=":13804946_0_0" index="0" disallow="tram rail_urban rail rail_electric rail_fast ship" speed="6.51" length="9.05" shape="2218.20,1307.47 2216.56,1309.35 2214.72,1310.24 2212.68,1310.17 2210.44,1309.11"/>
    </edge>
    <edge id=":13804946_1" function="internal">
        <lane id=":13804946_1_0" index="0" disallow="tram rail_urban rail rail_electric rail_fast ship" speed="7.98" length="14.24" shape="2218.20,1307.47 2216.55,1311.02 2216.44,1314.23 2217.87,1317.10 2220.84,1319.64"/>
    </edge>
    <edge id=":13804946_2" function="internal">