<?xml version="1.0" encoding="UTF-8"?>
<!-- generated on 2022-05-05 14:53:26.994606 by $Id$ UNKNOWN
  options: -r routes/basicRoutes.rou.xml -d countData.xml -o countRoutes.rou.xml <doubleminus>weighted -u countDis
-->
<routes xmlns:xsi="http://www.w3.org/2001/XMLSchema-instance" xsi:noNamespaceSchemaLocation="http://sumo.dlr.de/xsd/routes_file.xsd">
<!-- begin="0.0" end="3600.0" -->
    <routeDistribution id="countDis">
        <route id="6" edges="-133875223#0 -4357619 4340722#0 133875244#0 4338446#0 133875252#0 133875252#3 4338448#0 48665005 115952095#0 -546225667#1 -8769288#1 3120967#0 773250139#1 331545472#2 3086259#0 3086261 3091989#1 -2524 30991997#1 1040747475 55296264#1 55290812#0 48207221 2742 52573120 55290813#0 -4279571 -175773133 683583893" probability="1"/>
        <route id="56" edges="-133875229 -180869463#1 -133875249#2 -133875226#2 -133875226#0 -3381569#3 94820#0 133875252#0 133875252#3 133875256#0 133875255 4338449#0 4357619 133875223#0 133875223#1 133875223#3 gneE82 133875223#6 133875223#11 133875223#17 984881209 37777462 55290809#0 3441738#0" probability="1"/>
        <route id="66" edges="-133875229 -180869463#1 -133875249#2 -133875226#2 -133875226#0 -3381569#3 94820#0 133875252#0 133875252#3 4338448#0 48665005 115952095#0 -546225667#1 -8769288#1 3120967#0 773250139#1 331545472#2 3086259#0 3086261 3091989#1 -2524 30991997#1 1040747475 55296264#1 55290812#0 48207221 2742 52573120 52030081 52030084#0 38964070#0" probability="1"/>
        <route id="76" edges="-133875236#1 -133875229 -180869463#1 -133875249#2 -133875226#2 -133875226#0 -3381569#3 94820#0 133875252#0 133875252#3 133875256#0 133875255 4338449#0 4357619 133875223#0 133875223#1 133875223#3 gneE82 133875223#6 133875223#11 133875223#17 984881209 37777462 55290809#0 3441738#0 55290801 4236439#0 4236439#1 3441067#0" probability="2"/>
        <route id="85" edges="-133875236#1 -133875229 -180869463#1 -133875249#2 -133875226#2 -133875226#0 -3381569#3 94820#0 133875252#0 133875252#3 4338448#0 48665005 115952095#0 -546225667#1 -8769288#1 3120967#0 773250139#1 331545472#2 3086259#0 3086261 3091989#1 -2524 30991997#1 1040747475 55296264#1 55290812#0 48207221 2742 52573120 55290813#0 -4279571 -175773133 683583893 115353253#0 115353253#1 48206750 -54401052#2 -3024771 -2960931#0 326284103 54401064 192674702#0" probability="1"/>
        <route id="97" edges="-133875245#2 -133875236#3 -133875236#1 -133875229 -180869463#1 -133875249#2 -133875226#2 -133875226#0 -3381569#3 94820#0 133875252#0 133875252#3 133875256#0 133875255 4338449#0 4357619 133875223#0 133875223#1 133875223#3 gneE82 133875223#6 133875223#11 133875223#17 984881209 37777462 55290809#0" probability="2"/>
        <route id="125" edges="-133875249#2 -133875226#2 -133875226#0 -3381569#3 94820#0 133875252#0 133875252#3 4338448#0 48665005 115952095#0 -546225667#1 -8769288#1 3120967#0 773250139#1 331545472#2 3086259#0 3086261 3091989#1 -2524 30991997#1 1040747475 55296264#1 55290812#0 48207221 2742 52573120 55290813#0 -4279571 -175773133 683583893 115353253#0 3024958#0 -677916434 3024959#0" probability="1"/>
        <route id="132" edges="-133875260#3 -133875262#1 -133875261#1 -3025859#8 -3025859#7 -3025859#5 -3025859#3 -351684503 -351685326 -55290805 34243632#0 133875195#0 133875195#3 55290800 55290807 55290799 984881209 37777462 55290809#0 3441738#0 55290801 -2527#2 4644987#0 55296249#0 gneE91 4231695#0 4231695#3" probability="3"/>
        <route id="140" edges="-133875261#1 -3025859#8 -3025859#7 -3025859#5 -3025859#3 -351684503 -351685326 -55290805 34243632#0 133875195#0 133875195#3 55290800 55290807 55290799 984881209 37777462 55290809#0 3441738#0 55290801 -2527#2" probability="4"/>
        <route id="141" edges="-133875261#1 -3025859#8 -3025859#7 -3025859#5 -3025859#3 -351684503 -351685326 -55290805 34243632#0 133875195#0 133875195#3 55290800 55290807 55290799 984881209 37777462 55290809#0 3441738#0 55290801 -2527#2 4644987#0 55296249#0 26753071 -39264086" probability="1"/>
        <route id="143" edges="-133875262#1 -133875261#1 -3025859#8 -3025859#7 -3025859#5 -3025859#3 -351684503 -351685326 -55290805 34243632#0 133875195#0 133875195#3 55290800 55290807 55290799 984881209 37777462 55290809#0 3441738#0 55290801 -2527#2 4644987#0 55296249#0 gneE91 55602323#3 55602323#3.91" probability="1"/>
        <route id="144" edges="-133875262#1 -133875261#1 -3025859#8 -3025859#7 -3025859#5 -3025859#3 -351684503 -351685326 -55290805 34243632#0 133875195#0 133875195#3 55290800 55290807 55290799 984881209 37777462 55290809#0 3441738#0 55290801 -2527#2 4644987#0 55296249#0 gneE91 55602323#3 55602323#3.91 -8769288#1 8769305 309842640#0 39352131#0 39352131#2" probability="2"/>
        <route id="145" edges="-133875262#1 -133875261#1 -3025859#8 -3025859#7 -3025859#5 -3025859#3 -351684503 -351685326 -55290805 34243632#0 133875195#0 133875195#3 55290800 55290807 55290799 984881209 37777462 55290809#0 3441738#0 55290801 -2527#2 4644987#0 55296249#0 gneE91 55602323#3 55602323#3.91 -8769288#1 8769305 309842640#0 39352131#0 39352131#2 39352131#3 837572187#0 837572187#1 837573373#0 837573373#2 39645355#0" probability="2"/>
        <route id="146" edges="-133875262#1 -133875261#1 -3025859#8 -3025859#7 -3025859#5 -3025859#3 -351684503 -351685326 -55290805 34243632#0 133875195#0 133875195#3 55290800 55290807 55290799 984881209 37777462 55290809#0 3441738#0 55290801 -2527#2 4644987#0 55296249#0 gneE91 55602323#3 55602323#3.91 -8769288#1 8769305 309842640#0 39352131#0 39352131#2 39352131#3 837572187#0 837572187#1 837573373#0 837573373#2 837573373#4 444272568#1" probability="4"/>
        <route id="147" edges="-133875262#1 -133875261#1 -3025859#8 -3025859#7 -3025859#5 -3025859#3 -351684503 -351685326 -55290805 34243632#0 133875195#0 133875195#3 55290800 55290807 55290799 984881209 37777462 55290809#0 3441738#0 55290801 -2527#2 4644987#0 55296249#0 gneE91 55602323#3 55602323#3.91 884727976#0 gneE92" probability="1"/>
        <route id="148" edges="-133875262#1 -3025839#7 -447465369 -2745#1 -39348547#2 39348546#0 52573118#0 2755#0 52573119 -55290812#1 -2756#1 2757#0 2757#1 1025513686#0 1025513686#1 188924487#0" probability="1"/>
        <route id="164" edges="-180869463#1 -133875249#2 -133875226#2 -133875226#0 -3381569#3 94820#0 133875252#0 133875252#3 4338448#0 48665005 115952095#0 -546225667#1 -8769288#1 3120967#0 773250139#1 331545472#2 3086259#0 3086261 3091989#1 -2524 30991997#1 1040747475 55296264#1 55290812#0 48207221 2742 52573120 55290813#0 -4279571 -175773133 683583893 115353253#0 115353253#1 48206750 -54401052#2 -54401052#1 2960939" probability="1"/>
        <route id="167" edges="-188053689 -2955307#1 -3026118#5 -3025859#5 -3025859#3 -351684503 -351685326 -55290805 34243632#0 133875195#0 133875195#3 55290800 55290807 55290799 984881209 37777462 55290809#0 3441738#0 55290801 -2527#2 4644987#0 55296249#0 gneE91 55602323#3 55602323#3.91 -8769288#1 8769305 309842640#0 39352131#0 39352131#2 39352131#3 837572187#0 3600469#0" probability="2"/>
        <route id="190" edges="-192674402#1 -959553052#4 -959553052#2 -34784840#1 39183706 192668650#2 192668650#3 gneE13 gneE11 3292445#0.4 3292445#3 209#0 55290798#0 210#1 30992002 -3120967#1 8769305 309842640#0 39352131#0 39352131#2 39352131#3 837572187#0 837572187#1 837573373#0 837573373#2 837573373#4 444272568#1 -gneE28 -gneE45" probability="5"/>
        <route id="191" edges="-192674402#1 -959553052#4 -959553052#2 -34784840#1 39183706 192668650#2 192668650#3 gneE13 gneE11 3292445#0.4 3292445#3 209#0 55290798#0 210#1 30992002 -3120967#1 8769305 309842640#0 39352131#0 39352131#2 39352131#3 837572187#0 837572187#1 837573373#0 837573373#2 837573373#4 444272568#1 -gneE28 -gneE45 -gneE43 -gneE26" probability="4"/>
        <route id="205" edges="-192674701 -279357279#1 326284091 984881212 54401067 gneE72 -133875260#3 -133875262#1 -133875261#1 -3025859#8 -3025859#7 -3025859#5 -3025859#3 -351684503 -351685326 -55290805 34243632#0 133875195#0 133875195#3 55290800 55290807 55290799 984881209 37777462 55290809#0 3441738#0 55290801" probability="3"/>
        <route id="211" edges="-198245314#0 3609801#1 -39348547#2 39348546#0 52573118#0 2755#0 52573119 -55290812#1" probability="1"/>
        <route id="239" edges="-212#2 192668649#1 192668647 -3024965#8 3024965#3 -34784840#1 39183706 192668650#2 192668650#3 gneE13 gneE11 3292445#0.4 3292445#3 209#0 55290798#0 210#1 30992002 -3120967#1 8769305 309842640#0 39352131#0 39352131#2 39352131#3 837572187#0 837572187#1 837573373#0 837573373#2 837573373#4 444272568#1 3098972#0" probability="3"/>
        <route id="248" edges="-212#2 192668649#1 192668647 959553052#0 959553052#3 192674402#0 192674402#2 -48586336#2 240290973#0 -58295596#1 -192674701 -279357279#1 326284091 984881212 54401067 gneE72 -133875260#3 -133875262#1 -133875261#1 -3025859#8 -3025859#7 -3025859#5 -3025859#3 -351684503 -351685326 -55290805 34243632#0 133875195#0 133875195#3 55290800 55290807 55290799 984881209 37777462 55290809#0 3441738#0 55290801" probability="2"/>
        <route id="259" edges="-2524 30991997#1 1040747475 2757#1 1025513686#0 1025513686#1 188924487#0 -3292445#8 -3292445#2 gneE12 -192668650#4 2956761" probability="2"/>
        <route id="270" edges="-252506895 -4231695#2 -gneE91 -55296249#2 -4644987#1 2527#0 4236439#0 4236439#1 3441067#0 55296262 4479201#0 4346053 3027099#0 505404870#0 351684045#0 133875181#0 351684503 3025859#0 -3026116#5 -3026116#2 -40495054" probability="3"/>
        <route id="276" edges="-2527#2 4644987#0 55296249#0 gneE91 55602323#3 55602323#3.91 -8769288#1 8769305 309842640#0 39352131#0 39352131#2 39352131#3 837572187#0 837572187#1 837573373#0 837573373#2 837573373#4 444272568#1 -gneE28 gneE33" probability="6"/>
        <route id="278" edges="-26312557 26312537#3 2743#0 -2743#1 2748#0 198245314#1 55296262 197960551 55290809#0 3441738#0 55290801 -2527#2 4644987#0 55296249#0 gneE91 55602323#3 55602323#3.91" probability="3"/>
        <route id="279" edges="-26312557 26312537#3 2743#0 -2743#1 2748#0 198245314#1 55296262 197960551 55290809#0 3441738#0 55290801 -2527#2 4644987#0 55296249#0 gneE91 55602323#3 55602323#3.91 -8769288#1 8769305" probability="4"/>
        <route id="280" edges="-26312557 26312537#3 2743#0 -2743#1 2748#0 198245314#1 55296262 197960551 55290809#0 3441738#0 55290801 -2527#2 4644987#0 55296249#0 gneE91 55602323#3 55602323#3.91 -8769288#1 8769305 309842640#0 39352131#0 39352131#2 39352131#3 837572187#0 837572187#1 837573373#0 837573373#2 837573373#4 444272568#1 -gneE28 -gneE45 -gneE43" probability="1"/>
        <route id="281" edges="-26312557 26312537#3 2743#0 -2743#1 2748#0 198245314#1 55296262 197960551 55290809#0 3441738#0 55290801 -2527#2 4644987#0 55296249#0 gneE91 55602323#3 55602323#3.91 -8769288#1 8769305 32751327 3086252#0 3086251" probability="1"/>
        <route id="282" edges="-26312557 26312537#3 2743#0 -2743#1 2748#0 198245314#1 55296262 4479201#0 4346053 55290810 55290800 55290807 55290799" probability="1"/>
        <route id="294" edges="-2743#1 -26312537#4 26312537#3 3609801#1 -39348547#2 39348546#0 52573118#0 2755#0 52573119 -55290812#1 -2756#1 2757#0 2757#1 1025513686#0 1025513686#1 188924487#0 -3292445#8 -3292445#2 gneE12 -192668650#4 -192668650#2 -192668650#1" probability="1"/>
        <route id="296" edges="-2743#1 -26312537#4 26312537#3 3609801#1 -39348547#2 39348546#0 52573118#0 2755#0 52573119 -55290812#1 -2756#1 2757#0 2757#1 1025513686#0 1025513686#1 2761 48173166#0" probability="1"/>
        <route id="302" edges="-2743#1 2748#0 198245314#1 55296262 197960551 55290809#0 3441738#0 55290801" probability="5"/>
        <route id="303" edges="-2743#1 2748#0 198245314#1 55296262 197960551 55290809#0 3441738#0 55290801 -2527#2 4644987#0 55296249#0 gneE91 4231695#0 4231695#3" probability="2"/>
        <route id="304" edges="-2743#1 2748#0 198245314#1 55296262 197960551 55290809#0 3441738#0 55290801 -2527#2 4644987#0 55296249#0 gneE91 55602323#3 55602323#3.91 -8769288#1 8769305" probability="9"/>
        <route id="305" edges="-2743#1 2748#0 198245314#1 55296262 197960551 55290809#0 3441738#0 55290801 -2527#2 4644987#0 55296249#0 gneE91 55602323#3 55602323#3.91 -8769288#1 8769305 -4231711" probability="3"/>
        <route id="307" edges="-2743#1 2748#0 198245314#1 55296262 197960551 55290809#0 3441738#0 55290801 -2527#2 4644987#0 55296249#0 gneE91 55602323#3 55602323#3.91 -8769288#1 8769305 309842640#0 39352131#0 39352131#2 39352131#3 837572187#0 837572187#1 837573373#0 837573373#2 837573373#4 444272568#1 3098972#0" probability="3"/>
        <route id="308" edges="-2743#1 2748#0 198245314#1 55296262 197960551 55290809#0 3441738#0 55290801 -2527#2 4644987#0 55296249#0 gneE91 55602323#3 55602323#3.91 -8769288#1 8769305 32751327 3086252#0" probability="4"/>
        <route id="309" edges="-2743#1 2748#0 198245314#1 55296262 197960551 55290809#0 3441738#0 55290801 -2527#2 4644987#0 55296249#0 gneE91 55602323#3 55602323#3.91 -8769288#1 8769305 32751327 3086252#0 3086251 3086245#1 3086248#0" probability="1"/>
        <route id="310" edges="-2743#1 2748#0 198245314#1 55296262 4479201#0 4346053 55290810 55290800 3027057" probability="1"/>
        <route id="311" edges="-2743#1 2748#0 198245314#1 55296262 4479201#0 4346053 55290810 55290800 55290807 55290799 -133875223#19 -133875223#16 -133875223#10 gneE81 -133875223#4 -133875223#1 -133875223#0 -4357619 4340722#0 133875244#0 133875232#0 3381569#0 133875226#0 133875226#1" probability="2"/>
        <route id="315" edges="-2743#2 -2743#1 2748#0 198245314#1 55296262 197960551 55290809#0 3441738#0 55290801 -2527#2 4644987#0" probability="3"/>
        <route id="316" edges="-2743#2 -2743#1 2748#0 198245314#1 55296262 197960551 55290809#0 3441738#0 55290801 -2527#2 4644987#0 55296249#0 gneE91 55602323#3 55602323#3.91" probability="4"/>
        <route id="317" edges="-2743#2 -2743#1 2748#0 198245314#1 55296262 197960551 55290809#0 3441738#0 55290801 -2527#2 4644987#0 55296249#0 gneE91 55602323#3 55602323#3.91 -8769288#1 8769305 32751327 3086252#0 4321650 3086254#0" probability="3"/>
        <route id="318" edges="-2745#1 -3609801#3 2748#0 198245314#1 55296262 197960551 55290809#0 3441738#0 55290801 -2527#2 4644987#0 55296249#0 gneE91 55602323#3 55602323#3.91 884727976#0" probability="1"/>
        <route id="319" edges="-2745#1 -3609801#3 2748#0 198245314#1 55296262 4479201#0 4346053 55290810 55290800 3027057" probability="4"/>
        <route id="320" edges="-2745#1 -3609801#3 2748#0 198245314#1 55296262 4479201#0 4346053 55290810 55290800 55290807 55290799 -133875223#19 -133875223#16 -133875223#10 gneE81 -133875223#4 -133875223#1 -133875223#0 -4357619" probability="2"/>
        <route id="321" edges="-2745#1 -3609801#3 2748#0 198245314#1 55296262 4479201#0 4346053 55290810 55290800 55290807 55290799 -133875223#19 -133875223#16 -133875223#10 gneE81 -133875223#4 -133875223#1 -133875223#0 -4357619 4340722#0 133875244#0 133875232#0 3381569#0 133875226#0 133875226#1 133875249#0 180869463#0 133875229 133875236#0 133875236#2 133875245#0 133875245#3 gneE52 gneE52.55 -gneE86" probability="1"/>
        <route id="322" edges="-2745#1 -3609801#3 2748#0 198245314#1 55296262 4479201#0 4346053 55290810 55290800 55290807 55290799 -133875223#19 -133875223#16 -133875223#10 gneE81 -133875223#4 -133875223#1 -133875223#0 -4357619 4340722#0 133875244#0 4338446#0 133875252#0" probability="3"/>
        <route id="323" edges="-2745#1 -3609801#3 2748#0 198245314#1 55296262 4479201#0 4346053 55290810 55290800 55290807 55290799 -133875223#19 -133875223#16 -133875223#10 gneE81 -133875223#4 -133875223#1 -133875223#0 -4357619 4340722#0 133875244#0 4338446#0 133875252#0 gneE97 -141841564#11" probability="4"/>
        <route id="327" edges="-2745#1 -39348547#2 39348546#0 52573118#0 2755#0 52573119 -55290812#1 -2756#1 2757#0 2757#1 1025513686#0 1025513686#1 188924487#0 209#0 55290798#0 210#1 30992002 -3120967#1" probability="1"/>
        <route id="328" edges="-2745#1 -39348547#2 39348546#0 52573118#0 2755#0 52573119 -55290812#1 -2756#1 2757#0 2757#1 1025513686#0 1025513686#1 188924487#0 209#0 55290798#0 210#1 30992002 -3120967#1 8769305 309842640#0 39352131#0" probability="2"/>
        <route id="330" edges="-2745#1 -39348547#2 39348546#0 52573118#0 2755#0 52573119 -55290812#1 -2756#1 2757#0 2757#1 1025513686#0 1025513686#1 2761 48173166#0 -899656225#3" probability="1"/>
        <route id="333" edges="-2756#1 2757#0 2757#1 1025513686#0 1025513686#1 188924487#0" probability="4"/>
        <route id="334" edges="-2756#1 2757#0 2757#1 1025513686#0 1025513686#1 188924487#0 -3292445#8 -3292445#2" probability="1"/>
        <route id="335" edges="-2756#1 2757#0 2757#1 1025513686#0 1025513686#1 188924487#0 209#0 55290798#0 210#1" probability="2"/>
        <route id="336" edges="-2756#1 2757#0 2757#1 1025513686#0 1025513686#1 188924487#0 209#0 55290798#0 210#1 30992002 -3120967#1 167257#2 884727976#0 gneE92 115952099#2 -30906#3" probability="5"/>
        <route id="337" edges="-2756#1 2757#0 2757#1 1025513686#0 1025513686#1 188924487#0 209#0 55290798#0 210#1 30992002 -3120967#1 167257#2 884727976#0 gneE92 115952099#2 -30906#3 38619223#0 133875255 133875259#0 133875244#0 133875232#0 3381569#0 133875226#0 940770422#0 553586920#0" probability="2"/>
        <route id="339" edges="-2756#1 2757#0 2757#1 1025513686#0 1025513686#1 188924487#0 209#0 55290798#0 210#1 30992002 -3120967#1 8769305 309842640#0 39352131#0 39352131#2 39352131#3 837572187#0 837572187#1 837573373#0 837573373#2 39645355#0" probability="2"/>
        <route id="348" edges="-279357279#1 326284091 984881212 54401067 gneE72 -133875260#3 -133875262#1 -133875261#1 -3025859#8 -3025859#7 -3025859#5 -3025859#3 -351684503 -351685326 -55290805 34243632#0 133875195#0 133875195#3 55290800 55290807 55290799 984881209 37777462 55290809#0 3441738#0 55290801 -2527#2 4644987#0 55296249#0 gneE91 4231695#0 4231695#3 4231696#1" probability="4"/>
        <route id="358" edges="-2955307#1 -3026118#5 -3025859#5 -3025859#3 -351684503 -351685326 -55290805 34243632#0 133875195#0 133875195#3 55290800 55290807 55290799 984881209 37777462 55290809#0 3441738#0 55290801 -2527#2" probability="2"/>
        <route id="359" edges="-2955307#1 -3026118#5 -3025859#5 -3025859#3 -351684503 -351685326 -55290805 34243632#0 133875195#0 133875195#3 55290800 55290807 55290799 984881209 37777462 55290809#0 3441738#0 55290801 -2527#2 4644987#0" probability="1"/>
        <route id="360" edges="-2955307#1 -3026118#5 -3025859#5 -3025859#3 -351684503 -351685326 -55290805 34243632#0 133875195#0 133875195#3 55290800 55290807 55290799 984881209 37777462 55290809#0 3441738#0 55290801 -2527#2 4644987#0 55296249#0" probability="3"/>
        <route id="361" edges="-2955307#1 -3026118#5 -3025859#5 -3025859#3 -351684503 -351685326 -55290805 34243632#0 133875195#0 133875195#3 55290800 55290807 55290799 984881209 37777462 55290809#0 3441738#0 55290801 -2527#2 4644987#0 55296249#0 gneE91 4231695#0 4231695#3" probability="2"/>
        <route id="362" edges="-2955307#1 -3026118#5 -3025859#5 -3025859#3 -351684503 -351685326 -55290805 34243632#0 133875195#0 133875195#3 55290800 55290807 55290799 984881209 37777462 55290809#0 3441738#0 55290801 -2527#2 4644987#0 55296249#0 gneE91 55602323#3 55602323#3.91 -8769288#1 8769305 309842640#0 39352131#0 39352131#2" probability="1"/>
        <route id="363" edges="-2955307#1 -3026118#5 -3025859#5 -3025859#3 -351684503 -351685326 -55290805 34243632#0 133875195#0 133875195#3 55290800 55290807 55290799 984881209 37777462 55290809#0 3441738#0 55290801 -2527#2 4644987#0 55296249#0 gneE91 55602323#3 55602323#3.91 -8769288#1 8769305 309842640#0 39352131#0 39352131#2 39352131#3 837572187#0 3600469#0" probability="4"/>
        <route id="365" edges="-2955307#1 -3026118#5 -3025859#5 -3025859#3 -351684503 -351685326 -55290805 34243632#0 133875195#0 133875195#3 55290800 55290807 55290799 984881209 37777462 55290809#0 3441738#0 55290801 -2527#2 4644987#0 55296249#0 gneE91 55602323#3 55602323#3.91 -8769288#1 8769305 32751327 3086252#0 3086251 3086245#1" probability="2"/>
        <route id="366" edges="-2955307#1 -3026118#5 -3025859#5 -3025859#3 -351684503 -351685326 -55290805 34243632#0 133875195#0 133875195#3 55290800 55290807 55290799 984881209 37777462 55290809#0 3441738#0 55290801 -2527#2 4644987#0 55296249#0 gneE91 55602323#3 55602323#3.91 -8769288#1 8769305 32751327 3086252#0 4321650" probability="4"/>
        <route id="378" edges="-2955307#2 -2955307#1 -3026118#5 -3025859#5 -3025859#3 -351684503 -351685326 -55290805 34243632#0 133875195#0 133875195#3 55290800 55290807 55290799 984881209 37777462 55290809#0 3441738#0 55290801 -2527#2 4644987#0 55296249#0 gneE91 55602323#3 55602323#3.91 -8769288#1 8769305 309842640#0 39352131#0 39352131#2 39352131#3 837572187#0 837572187#1" probability="6"/>
        <route id="379" edges="-2955307#2 -2955307#1 -3026118#5 -3025859#5 -3025859#3 -351684503 -351685326 -55290805 34243632#0 133875195#0 133875195#3 55290800 55290807 55290799 984881209 37777462 55290809#0 3441738#0 55290801 -2527#2 4644987#0 55296249#0 gneE91 55602323#3 55602323#3.91 -8769288#1 8769305 32751327" probability="2"/>
        <route id="386" edges="-2956761 -192668650#2 -192668650#1 192668649#1 192668647 -3024965#8 3024965#3 -34784840#1 39183706 192668650#2 192668650#3 gneE13 gneE11 3292445#0.4 3292445#3 209#0 55290798#0 210#1 30992002 -3120967#1 8769305 309842640#0 39352131#0 39352131#2 39352131#3 837572187#0 837572187#1 837573373#0 837573373#2 837573373#4 444272568#1 3098972#0" probability="2"/>
        <route id="398" edges="-2960823 48586823 gneE72 -133875260#3 -133875262#1 -133875261#1 -3025859#8 -3025859#7 -3025859#5 -3025859#3 -351684503 -351685326 -55290805 34243632#0 133875195#0 133875195#3 55290800 55290807 55290799 984881209 37777462 55290809#0 3441738#0 55290801 -2527#2 4644987#0 55296249#0 gneE91 55602323#3" probability="3"/>
        <route id="399" edges="-2960823 48586823 gneE72 -133875260#3 -133875262#1 -133875261#1 -3025859#8 -3025859#7 -3025859#5 -3025859#3 -351684503 -351685326 -55290805 34243632#0 133875195#0 133875195#3 55290800 55290807 55290799 984881209 37777462 55290809#0 3441738#0 55290801 4236439#0 39333603" probability="3"/>
        <route id="417" edges="-2960823 48586823 gneE73 gneE74 54401064 192674702#0 279357279#1 192674701 58295596#0 -240290973#1 48586336#1 -192674402#2 -192674402#1 -959553052#4 -959553052#2 -34784840#1 39183706 192668650#2 192668650#3 gneE13 gneE11 3292445#0.4 3292445#3 209#0 55290798#0 210#1 30992002 -3120967#1 8769305 309842640#0 39352131#0 39352131#2 39352131#3 837572187#0 837572187#1 837573373#0 837573373#2 837573373#4 444272568#1 3098972#0" probability="1"/>
        <route id="442" edges="-2960939 54401052#1 54401052#2 414017617 683648842#0 683648842#1 3024957 175773133 3024962 48207559 52030084#0 2765 52573118#0 2755#0 52573119 -55290812#1 -2756#1 2757#0 2757#1 1025513686#0 1025513686#1 188924487#0 209#0 2523#0 2524 39340468#0 39340468#1 4271799#1 -26637310#2" probability="1"/>
        <route id="444" edges="-2960939 54401052#1 54401052#2 414017617 683648842#0 683648842#1 3024957 175773133 3024962 48207559 52030084#0 2765 52573118#0 2755#0 52573119 -55290812#1 -2756#1 2757#0 2757#1 1025513686#0 2522#0" probability="2"/>
        <route id="457" edges="-3024958#0 115353253#1 683648843 683648842#0 683648842#1 3024957 175773133 3024962 48207559 52030084#0 2765 52573118#0 2755#0 52573119 -55290812#1 -2756#1 2757#0" probability="1"/>
        <route id="459" edges="-3024958#0 115353253#1 683648843 683648842#0 683648842#1 3024957 175773133 3024962 48207559 52030084#0 2765 52573118#0 2755#0 52573119 -55290812#1 -2756#1 2757#0 2757#1 1025513686#0 1025513686#1 188924487#0 209#0 55290798#0 -gneE54" probability="1"/>
        <route id="462" edges="-3024958#0 115353253#1 683648843 683648842#0 683648842#1 3024957 175773133 3024962 48207559 52030084#0 2765 52573118#0 2755#0 52573119 -55290812#1 -2756#1 2757#0 2757#1 1025513686#0 1025513686#1 188924487#0 209#0 55290798#0 210#1 30992002 -3120967#1 8769305 309842640#0" probability="1"/>
        <route id="470" edges="-3024958#0 115353253#1 683648843 683648842#0 683648842#1 3024957 175773133 3024962 48207559 52030084#0 38964070#0 39348547#1 -3609801#3 2748#0 198245314#1 55296262 4479201#0 4346053 55290810 55290800 55290807 55290799 -133875223#19 -133875223#16 -133875223#10 gneE81 -133875223#4 -133875223#1 -133875223#0 -4357619 4340722#0 133875244#0 133875232#0 3381569#0 133875226#0 133875226#1" probability="4"/>
        <route id="471" edges="-3024958#0 115353253#1 683648843 683648842#0 683648842#1 3024957 175773133 3024962 48207559 52030084#0 38964070#0 39348547#1 -3609801#3 2748#0 198245314#1 55296262 4479201#0 4346053 55290810 55290800 55290807 55290799 -133875223#19 -133875223#16 -133875223#10 gneE81 -133875223#4 -133875223#1 -133875223#0 -4357619 4340722#0 133875244#0 133875232#0 3381569#0 133875226#0 133875226#1 133875249#0 180869463#0 133875229 133875236#0 133875236#2 133875245#0 133875245#3 gneE52 gneE52.55 -gneE53" probability="2"/>
        <route id="472" edges="-3024958#0 115353253#1 683648843 683648842#0 683648842#1 3024957 175773133 3024962 48207559 52030084#0 38964070#0 39348547#1 -3609801#3 2748#0 198245314#1 55296262 4479201#0 4346053 55290810 55290800 55290807 55290799 -133875223#19 -133875223#16 -133875223#10 gneE81 -133875223#4 -133875223#1 -133875223#0 -4357619 4340722#0 133875244#0 133875232#0 3381569#0 133875226#0 940770422#0" probability="3"/>
        <route id="474" edges="-3024958#0 115353253#1 683648843 683648842#0 683648842#1 3024957 175773133 3024962 48207559 52030084#0 38964070#0 39348547#1 -3609801#3 2748#0 198245314#1 55296262 4479201#0 4346053 55290810 55290800 55290807 55290799 -133875223#19 -133875223#16 -133875223#10 gneE81 -133875223#4 -133875223#1 -133875223#0 -4357619 4340722#0 133875244#0 4338446#0 133875252#0 133875252#3" probability="6"/>
        <route id="475" edges="-3024958#0 115353253#1 683648843 683648842#0 683648842#1 3024957 175773133 3024962 48207559 52030084#0 38964070#0 39348547#1 -3609801#3 2748#0 198245314#1 55296262 4479201#0 4346053 55290810 55290800 55290807 55290799 -133875223#19 -133875223#16 -133875223#10 gneE81 -3403171#1" probability="4"/>
        <route id="477" edges="-3024959#0 -50600070#4 -3024958#0 115353253#1 683648843 683648842#0 683648842#1 3024957 175773133 3024962 48207559 52030084#0 38964070#0 39348547#1 -3609801#3 2748#0 198245314#1 55296262 197960551 55290809#0 3441738#0 55290801" probability="4"/>
        <route id="478" edges="-3024959#0 -50600070#4 -3024958#0 115353253#1 683648843 683648842#0 683648842#1 3024957 175773133 3024962 48207559 52030084#0 38964070#0 39348547#1 -3609801#3 2748#0 198245314#1 55296262 197960551 55290809#0 3441738#0 55290801 4236439#0 39333603" probability="5"/>
        <route id="488" edges="-3024963#1 -3024966#1 3024962 48207559 52030084#0 2765 52573118#0 2755#0 52573119 -55290812#1" probability="2"/>
        <route id="490" edges="-3024963#1 -3024966#1 3024962 48207559 52030084#0 38964070#0 39348547#1 -3609801#3 2748#0 198245314#1 55296262 197960551 55290809#0 3441738#0 55290801 4236439#0 4236439#1" probability="3"/>
        <route id="491" edges="-3024963#1 -3024966#1 3024962 48207559 52030084#0 38964070#0 39348547#1 -3609801#3 2748#0 198245314#1 55296262 4479201#0 4346053 55290810 55290800 55290807 55290799 -133875223#19 -133875223#16 -133875223#10 gneE81 -133875223#4 -133875223#1 -133875223#0 -4357619 4340722#0 133875244#0 133875232#0 3381569#0 133875226#0" probability="2"/>
        <route id="502" edges="-3024965#2 -3024966#1 3024962 48207559 52030084#0 38964070#0 39348547#1 -3609801#3 2748#0 198245314#1 55296262 197960551 55290809#0 3441738#0" probability="1"/>
        <route id="511" edges="-3024966#1 3024962 48207559 52030084#0 2765 52573118#0 2755#0 52573119 -55290812#1 -2756#1 2757#0 2757#1 1025513686#0 1025513686#1 188924487#0 209#0 55290798#0 210#1 30992002 -3120967#1 8769305 32751327 3086252#0 3086251 3086245#1" probability="1"/>
        <route id="513" edges="-3024966#1 3024962 48207559 52030084#0 38964070#0 39348547#1 -3609801#3 2748#0 198245314#1 55296262 197960551 55290809#0 3441738#0 55290801 4236439#0 4236439#1" probability="1"/>
        <route id="514" edges="-3024966#1 3024962 48207559 52030084#0 38964070#0 39348547#1 -3609801#3 2748#0 198245314#1 55296262 4479201#0 4346053 55290810 55290800 3027057" probability="4"/>
        <route id="515" edges="-3024966#1 3024962 48207559 52030084#0 38964070#0 39348547#1 -3609801#3 2748#0 198245314#1 55296262 4479201#0 4346053 55290810 55290800 55290807 55290799 -133875223#19 -133875223#16 -133875223#10" probability="1"/>
        <route id="516" edges="-3024966#1 3024962 48207559 52030084#0 38964070#0 39348547#1 -3609801#3 2748#0 198245314#1 55296262 4479201#0 4346053 55290810 55290800 55290807 55290799 -133875223#19 -133875223#16 -133875223#10 4479202#0" probability="7"/>
        <route id="517" edges="-3024966#1 3024962 48207559 52030084#0 38964070#0 39348547#1 -3609801#3 2748#0 198245314#1 55296262 4479201#0 4346053 55290810 55290800 55290807 55290799 -133875223#19 -133875223#16 -133875223#10 gneE81 -133875223#4 -133875223#1 -133875223#0 -4357619 4340722#0 133875244#0 133875232#0" probability="3"/>
        <route id="518" edges="-3024966#1 3024962 48207559 52030084#0 38964070#0 39348547#1 -3609801#3 2748#0 198245314#1 55296262 4479201#0 4346053 55290810 55290800 55290807 55290799 -133875223#19 -133875223#16 -133875223#10 gneE81 -133875223#4 -133875223#1 -133875223#0 -4357619 4340722#0 133875244#0 133875232#0 3381569#0 133875226#0 133875226#1 133875249#0 180869463#0" probability="6"/>