<?xml version="1.0" encoding="UTF-8"?>
<!-- generated on 2022-05-05 19:38:21.838715 by $Id$ UNKNOWN
  options: -r routes/sampledRoutes.rou.xml -d countData.xml <doubleminus>weighted <doubleminus>optimize full
-->
<routes xmlns:xsi="http://www.w3.org/2001/XMLSchema-instance" xsi:noNamespaceSchemaLocation="http://sumo.dlr.de/xsd/routes_file.xsd">
<!-- begin="0.0" end="3600.0" -->
    <vehicle id="0" depart="0.00">
        <route edges="133875226#1 133875249#0 180869463#0 133875229 133875236#0 133875236#2 133875245#0 133875245#3 gneE52 gneE52.55 -gneE51 -404611919#1 gneE25 gneE26 gneE43 gneE45 gneE28 -444272568#2 -444272568#0 39645355#0"/>
    </vehicle>
    <vehicle id="1" depart="1.37">
        <route edges="gneE52.55 -gneE51 -404611919#1 gneE25 gneE26 gneE43 gneE45 gneE28 -444272568#2 -444272568#0 39645355#0 39645355#1 -39645355#1 -39645355#0 837573373#4 444272568#1 -gneE28 -gneE45 -gneE43 -gneE26 -gneE25 404611919#0 gneE51 -gneE52 -133875245#3 -133875245#2 -133875236#3 -133875236#1 -133875229 -180869463#1 -133875249#2 -133875226#2 -133875226#0 -3381569#3 94820#0 133875252#0 133875252#3 133875256#0 133875255 4338449#0"/>
    </vehicle>
    <vehicle id="2" depart="2.73">
        <route edges="-4644987#1 2527#0 4236439#0 4236439#1 3441067#0 55296262 4479201#0 4346053 3027099#0 505404870#0 351684045#0 133875181#0 351684503 3025859#0 3025859#5 3025859#6 3025859#8 133875261#0 133875262#0 133875260#0 48586818 gneE74 54401064 984881214 984881212 54401067"/>
    </vehicle>
    <vehicle id="3" depart="4.10">
        <route edges="37777462 55290809#0 3441738#0 55290801 -2527#2 4644987#0 55296249#0 gneE91 55602323#3 55602323#3.91 -8769288#1 3120967#0 773250139#1 331545472#2 -210#1"/>
    </vehicle>
    <vehicle id="4" depart="5.46">
        <route edges="7985210#0 7985210#1 431533372#0 2756#0 55290812#0 48207221 2742 52573120 55290813#0 -4279571 -175773133 683583893 115353253#0 115353253#1 48206750 -54401052#2 -54401052#1 -54401052#0 -54649790"/>
    </vehicle>
    <vehicle id="5" depart="6.83">
        <route edges="3441738#0 55290801 4236439#0 4236439#1 3441067#0 55296262 4479201#0 4346053 3027099#0 505404870#0 351684045#0 133875181#0 351684503 3025859#0 -3026116#5 -3026116#2"/>
    </vehicle>
    <vehicle id="6" depart="8.20">
        <route edges="984881209 37777462 55290809#0 3441738#0 55290801 4236439#0 4236439#1 3441067#0 -203240967#2 -198245314#0"/>
    </vehicle>
    <vehicle id="7" depart="9.56">
        <route edges="1025513686#0 1025513686#1 188924487#0 209#0 55290798#0 210#1 30992002 -3120967#1 167257#2 -55602323#6 -gneE91 -55296249#2 -4644987#1 2527#0 4236439#0 4236439#1"/>
    </vehicle>
    <vehicle id="8" depart="10.93">
        <route edges="55296262 197960551 55290809#0 3441738#0"/>
    </vehicle>
    <vehicle id="9" depart="12.30">
        <route edges="55290799 984881209 37777462 55290809#0 3441738#0 55290801 -2527#2 4644987#0 55296249#0 gneE91 55602323#3 55602323#3.91 -8769288#1 3120967#0 773250139#1 331545472#2 -210#1 -55290798#2 -209#3 -3292445#8 -3292445#2"/>
    </vehicle>
    <vehicle id="10" depart="13.66">
        <route edges="180869463#0 133875229 133875236#0 133875236#2 133875245#0 133875245#3 gneE52 gneE52.55 -gneE51 -404611919#1 gneE25 gneE26 gneE43 gneE45 gneE28 -444272568#2 -444272568#0 -837573373#3"/>
    </vehicle>
    <vehicle id="11" depart="15.03">
        <route edges="4357619 133875223#0 133875223#1 133875223#3 gneE82 133875223#6 133875223#11 133875223#17 984881209 37777462"/>
    </vehicle>
    <vehicle id="12" depart="16.39">
        <route edges="133875226#1 133875249#0 180869463#0 133875229 133875236#0 133875236#2 133875245#0 133875245#3 gneE52 gneE52.55 -gneE51 -404611919#1 gneE25 gneE26 gneE43 gneE45 gneE28 -444272568#2 -444272568#0 39645355#0"/>
    </vehicle>
    <vehicle id="13" depart="17.76">
        <route edges="2757#0 2757#1 1025513686#0 1025513686#1 188924487#0 209#0 55290798#0 210#1 30992002 -3120967#1 167257#2 884727976#0"/>
    </vehicle>
    <vehicle id="14" depart="19.13">
        <route edges="-444272568#0 -837573373#3 -837573373#1"/>
    </vehicle>
    <vehicle id="15" depart="20.49">
        <route edges="-351684503 -351685326 -55290805 34243632#0 133875195#0 133875195#3 55290800 55290807 55290799 984881209 37777462 55290809#0 3441738#0"/>
    </vehicle>
    <vehicle id="16" depart="21.86">
        <route edges="2748#0 198245314#1 55296262 4479201#0 4346053 55290810 55290800 55290807 55290799 -133875223#19 -133875223#16 -133875223#10 gneE81 -133875223#4 -133875223#1 -133875223#0 -4357619 4340722#0 133875244#0 133875232#0 3381569#0 133875226#0 133875226#1 133875249#0 180869463#0 133875229 133875236#0 133875236#2 133875245#0 133875245#3"/>
    </vehicle>
    <vehicle id="17" depart="23.23">
        <route edges="32751327 3086252#0 4321650 167283#0 167283#0.164 -55602323#6 -gneE91 -55296249#2 -4644987#1 2527#0 4236439#0 4236439#1 3441067#0 55296262 4479201#0 4346053 3027099#0 505404870#0"/>
    </vehicle>
    <vehicle id="18" depart="24.59">
        <route edges="1025513686#0 1025513686#1 188924487#0 209#0 55290798#0 210#1 30992002 -3120967#1 167257#2 -55602323#6 -gneE91 -55296249#2 -4644987#1 2527#0 4236439#0 4236439#1"/>
    </vehicle>
    <vehicle id="19" depart="25.96">
        <route edges="2527#0 4236439#0 4236439#1 3441067#0 55296262 4479201#0 4346053 3027099#0 505404870#0 351684045#0 133875181#0 351684503 3025859#0 3025859#5 3026118#0 4482439"/>
    </vehicle>
    <vehicle id="20" depart="27.32">
        <route edges="30992002 -3120967#1 8769305 309842640#0 39352131#0 39352131#2 39352131#3 837572187#0 837572187#1 837573373#0 837573373#2 837573373#4"/>
    </vehicle>
    <vehicle id="21" depart="28.69">
        <route edges="gneE52 gneE52.55 -gneE51 -404611919#1 gneE25 gneE26 gneE43 gneE45 gneE28 -444272568#2 -444272568#0 -837573373#3"/>
    </vehicle>
    <vehicle id="22" depart="30.06">
        <route edges="55296262 197960551 55290809#0 3441738#0"/>
    </vehicle>
    <vehicle id="23" depart="31.42">
        <route edges="2757#0 2757#1 1025513686#0 1025513686#1 188924487#0 -3292445#8 -3292445#2 gneE109 -192668650#4 -192668650#2 -192668650#1 192668649#1"/>
    </vehicle>
    <vehicle id="24" depart="32.79">
        <route edges="837573373#4 444272568#1 -gneE28 -gneE45 -gneE43 -gneE26 -gneE25 404611919#0 gneE51 -gneE52 -133875245#3 -133875245#2 -133875236#3 -133875236#1 -133875229 -180869463#1 -133875249#2 -133875226#2 -133875226#0 -3381569#3 94820#0 133875252#0 133875252#3 4338448#0 48665005 115952095#0 -546225667#1"/>
    </vehicle>
    <vehicle id="25" depart="34.16">
        <route edges="198245314#1 55296262 197960551 55290809#0 3441738#0 55290801 4236439#0"/>
    </vehicle>
    <vehicle id="26" depart="35.52">
        <route edges="2748#0 198245314#1 55296262 4479201#0 4346053 55290810 55290800 55290807 55290799 -133875223#19 -133875223#16 -133875223#10 gneE81 -133875223#4 -133875223#1 -133875223#0 -4357619 4340722#0 133875244#0 133875232#0 3381569#0 133875226#0 133875226#1 133875249#0"/>
    </vehicle>
    <vehicle id="27" depart="36.89">
        <route edges="-4644987#1 2527#0 4236439#0 4236439#1 3441067#0 55296262 4479201#0 4346053 3027099#0 505404870#0 351684045#0 133875181#0 351684503 3025859#0 -3026116#5 -3026116#2"/>
    </vehicle>
    <vehicle id="28" depart="38.25">
        <route edges="198245314#1 55296262 4479201#0 4346053 55290810 55290800 55290807 55290799 -133875223#19 -133875223#16 -133875223#10 4479202#0"/>
    </vehicle>
    <vehicle id="29" depart="39.62">
        <route edges="7985210#1 431533372#0 2756#0 55290812#0 48207221 2742 52573120 55290813#0 -4279571 -175773133 683583893 115353253#0 3024958#0 -677916434 3024961"/>
    </vehicle>
    <vehicle id="30" depart="40.99">
        <route edges="-2756#1 2757#0 2757#1 1025513686#0 1025513686#1 188924487#0 209#0 55290798#0 210#1 30992002"/>
    </vehicle>
    <vehicle id="31" depart="42.35">
        <route edges="48207221 2742 52573120 52030081 52030084#0 38964070#0 39348547#1 -3609801#3 2748#0 198245314#1 55296262 4479201#0 4346053 55290810 55290800 55290807 55290799 984881209"/>
    </vehicle>
    <vehicle id="32" depart="43.72">
        <route edges="683648842#0 683648842#1 3024957 175773133 3024962 48207559 52030084#0 2765 52573118#0 2755#0 52573119 -55290812#1 -2756#1 2757#0 2757#1 1025513686#0 1025513686#1 188924487#0 209#0 2523#0 2524"/>
    </vehicle>
    <vehicle id="33" depart="45.09">
        <route edges="683648842#1 3024957 175773133 3024962 48207559 52030084#0 38964070#0 39348547#1 -3609801#3 2748#0 198245314#1 55296262 4479201#0"/>
    </vehicle>
    <vehicle id="34" depart="46.45">
        <route edges="55290799 984881209 37777462 55290809#0 3441738#0 55290801 -2527#2 4644987#0 55296249#0 gneE91 55602323#3 55602323#3.91 -8769288#1 3120967#0 773250139#1 331545472#2 -210#1 -55290798#2 -209#3 -3292445#8 -3292445#2"/>
    </vehicle>
    <vehicle id="35" depart="47.82">
        <route edges="133875226#1 133875249#0 180869463#0 133875229 133875236#0 133875236#2 133875245#0 133875245#3 gneE52 gneE52.55 -gneE51 -404611919#1 gneE25 gneE26 gneE43 gneE45 gneE28 -444272568#2 -444272568#0 39645355#0"/>
    </vehicle>
    <vehicle id="36" depart="49.18">
        <route edges="-3086247 -39352131#2 3086250 -3086252#1 -32751327 309842640#0 39352131#0 39352131#2 39352131#3 837572187#0 837572187#1 837573373#0 837573373#2 837573373#4 444272568#1"/>
    </vehicle>
    <vehicle id="37" depart="50.55">
        <route edges="180869463#0 133875229 133875236#0 133875236#2 133875245#0 133875245#3 gneE52 gneE52.55 -gneE51 -404611919#1 gneE25 gneE26 gneE43 gneE45 gneE28 -444272568#2 -444272568#0 -837573373#3"/>
    </vehicle>
    <vehicle id="38" depart="51.92">
        <route edges="-444272568#0 -837573373#3 -837573373#1"/>
    </vehicle>
    <vehicle id="39" depart="53.28">
        <route edges="4479201#0 4346053 3027099#0 505404870#0 351684045#0 133875181#0 351684503 3025859#0 3025859#5 3025859#6 3025859#8 133875261#0 133875262#0 133875260#0 48586818 gneE74 54401064 192674702#0 279357279#1 192674701 58295596#0 -240290973#1 48586336#1 -192674402#2 -192674402#1 -959553052#4 -959553052#2"/>
    </vehicle>
    <vehicle id="40" depart="54.65">
        <route edges="-54516245#0 3026120 -351684503 -351685326 -55290805 34243632#0 133875195#0 133875195#3 55290800 55290807 55290799 984881209 37777462 55290809#0 3441738#0 -37728001#5"/>
    </vehicle>
    <vehicle id="41" depart="56.02">
        <route edges="30992002 -3120967#1 8769305 309842640#0 39352131#0 39352131#2 39352131#3 837572187#0 837572187#1 837573373#0 837573373#2 837573373#4"/>
    </vehicle>
    <vehicle id="42" depart="57.38">
        <route edges="837573373#4 444272568#1 -gneE28"/>
    </vehicle>
    <vehicle id="43" depart="58.75">
        <route edges="2748#0 198245314#1 55296262 197960551 55290809#0 3441738#0 55290801 -2527#2 4644987#0 55296249#0 gneE91 4231695#0 4231695#3 4231696#1"/>
    </vehicle>
    <vehicle id="44" depart="60.11">
        <route edges="-444272568#0 -837573373#3 -837573373#1"/>
    </vehicle>
    <vehicle id="45" depart="61.48">
        <route edges="197960551 55290809#0 3441738#0 55290801 -2527#2 4644987#0 55296249#0 gneE91 55602323#3 55602323#3.91 -8769288#1 3120967#0 773250139#1 331545472#2 3086259#0 3086261 3091989#1 39340468#0 39340468#1 39264130"/>
    </vehicle>
    <vehicle id="46" depart="62.85">
        <route edges="1025513686#0 1025513686#1 188924487#0 209#0 55290798#0 210#1 30992002 -3120967#1 167257#2 -55602323#6 -gneE91 -55296249#2 -4644987#1 2527#0 4236439#0 4236439#1"/>
    </vehicle>
    <vehicle id="47" depart="64.21">
        <route edges="326284103 54401064 984881214 984881212 54401067 gneE72 -133875260#3 -133875262#1 -133875261#1 -3025859#8 -3025859#7 -3025859#5 -3025859#3 -351684503 -351685326 -55290805 34243632#0 133875195#0 133875195#3 55290800 55290807 55290799 984881209 37777462"/>
    </vehicle>
    <vehicle id="48" depart="65.58">
        <route edges="-2756#1 2757#0 2757#1 1025513686#0 1025513686#1 188924487#0 209#0 55290798#0 210#1 30992002 -3120967#1 8769305 309842640#0 39352131#0 39352131#2 39352131#3 837572187#0 837572187#1 837573373#0"/>
    </vehicle>
    <vehicle id="49" depart="66.94">
        <route edges="48207221 2742 52573120 52030081 52030084#0 38964070#0 39348547#1 -3609801#3 2748#0 198245314#1 55296262 4479201#0 4346053 55290810 55290800 55290807 55290799"/>
    </vehicle>
    <vehicle id="50" depart="68.31">
        <route edges="210#1 30992002 -3120967#1 8769305 309842640#0 39352131#0 39352131#2 39352131#3 837572187#0 837572187#1 837573373#0 837573373#2 837573373#4"/>
    </vehicle>
    <vehicle id="51" depart="69.68">
        <route edges="1025513686#0 1025513686#1 188924487#0 209#0 55290798#0 210#1 30992002 -3120967#1 167257#2 -55602323#6 -gneE91 -55296249#2 -4644987#1 2527#0 4236439#0 4236439#1"/>
    </vehicle>
    <vehicle id="52" depart="71.04">
        <route edges="115353253#1 683648843 683648842#0 683648842#1 3024957 175773133 3024962 48207559 52030084#0 38964070#0 39348547#1 -3609801#3 2748#0 198245314#1 55296262 197960551 55290809#0 3441738#0 55290801 -2527#2 4644987#0 55296249#0 gneE91 4231695#0 4231695#3"/>
    </vehicle>
    <vehicle id="53" depart="72.41">
        <route edges="133875226#1 133875249#0 180869463#0 133875229 133875236#0 133875236#2 133875245#0 133875245#3 gneE52 gneE52.55 -gneE51 -404611919#1 gneE25 gneE26 gneE43 gneE45 gneE28 -444272568#2 -444272568#0 39645355#0"/>
    </vehicle>
    <vehicle id="54" depart="73.78">
        <route edges="32751327 3086252#0 4321650 167283#0 167283#0.164 -55602323#6 -gneE91 -55296249#2 -4644987#1 2527#0 4236439#0 4236439#1 3441067#0 55296262 4479201#0 4346053 3027099#0 505404870#0"/>
    </vehicle>
    <vehicle id="55" depart="75.14">
        <route edges="4357619 133875223#0 133875223#1 133875223#3 gneE82 133875223#6 133875223#11 133875223#17 984881209 37777462"/>
    </vehicle>
    <vehicle id="56" depart="76.51">
        <route edges="55296262 197960551 55290809#0 3441738#0"/>
    </vehicle>
    <vehicle id="57" depart="77.87">
        <route edges="-3025859#3 -351684503 -351685326 -55290805 34243632#0 133875195#0 133875195#3 55290800 55290807 55290799 984881209 37777462"/>
    </vehicle>
    <vehicle id="58" depart="79.24">
        <route edges="-444272568#0 -837573373#3 -837573373#1"/>
    </vehicle>
    <vehicle id="59" depart="80.61">
        <route edges="4045612#1 3091989#1 39340468#0 39340468#1 4271799#1 -26637310#2 3126773 39333941#2 127632770#0 167257#2 -55602323#6 -gneE91 -55296249#2 -4644987#1 2527#0 4236439#0 4236439#1 3441067#0 55296262 4479201#0"/>
    </vehicle>
    <vehicle id="60" depart="81.97">
        <route edges="2757#0 2757#1 1025513686#0 1025513686#1 188924487#0 209#0 55290798#0 210#1 30992002 -3120967#1 167257#2 884727976#0"/>
    </vehicle>
    <vehicle id="61" depart="83.34">
        <route edges="7985210#1 431533372#0 2756#0 55290812#0 48207221 2742 52573120 55290813#0 -4279571 -175773133 683583893 115353253#0 3024958#0 -677916434 3024961"/>
    </vehicle>
    <vehicle id="62" depart="84.71">
        <route edges="-444272568#0 -837573373#3 -837573373#1"/>
    </vehicle>
    <vehicle id="63" depart="86.07">
        <route edges="55296262 197960551 55290809#0 3441738#0"/>
    </vehicle>
    <vehicle id="64" depart="87.44">
        <route edges="-2756#1 2757#0 2757#1 1025513686#0 1025513686#1 188924487#0 209#0 55290798#0 210#1 30992002"/>
    </vehicle>
    <vehicle id="65" depart="88.80">
        <route edges="683648842#0 683648842#1 3024957 175773133 3024962 48207559 52030084#0 2765 52573118#0 2755#0 52573119 -55290812#1 -2756#1 2757#0 2757#1 1025513686#0 1025513686#1 188924487#0 209#0 2523#0 2524"/>
    </vehicle>
    <vehicle id="66" depart="90.17">
        <route edges="gneE25 gneE26 gneE43 gneE45 gneE28 -444272568#2 -444272568#0"/>
    </vehicle>
    <vehicle id="67" depart="91.54">
        <route edges="37777462 55290809#0 3441738#0 55290801 -2527#2 4644987#0 55296249#0 gneE91 55602323#3 55602323#3.91 -8769288#1 3120967#0 773250139#1 331545472#2 3086259#0 3086261 3091989#1 -2524 30991997#1"/>
    </vehicle>
    <vehicle id="68" depart="92.90">
        <route edges="2748#0 198245314#1 55296262 197960551 55290809#0 3441738#0 55290801 -2527#2 4644987#0 55296249#0 gneE91 4231695#0 4231695#3 4231696#1"/>
    </vehicle>
    <vehicle id="69" depart="94.27">
        <route edges="198245314#1 55296262 197960551 55290809#0 3441738#0 55290801 4236439#0"/>
    </vehicle>
    <vehicle id="70" depart="95.64">
        <route edges="3441067#0 55296262 4479201#0 4346053 3027099#0 505404870#0 351684045#0 133875181#0 351684503 3025859#0 3025859#5 3025859#6 3025859#8 133875261#0 133875262#0 133875260#0 48586818 gneE74 54401064 984881214 984881212 54401067"/>
    </vehicle>
    <vehicle id="71" depart="97.00">
        <route edges="48207221 2742 52573120 52030081 52030084#0 38964070#0 39348547#1 -3609801#3 2748#0 198245314#1 55296262 4479201#0 4346053 55290810 55290800 55290807 55290799"/>
    </vehicle>
    <vehicle id="72" depart="98.37">
        <route edges="-444272568#0 -837573373#3 -837573373#1"/>
    </vehicle>
    <vehicle id="73" depart="99.73">
        <route edges="1025513686#0 1025513686#1 188924487#0 209#0 55290798#0 210#1 30992002 -3120967#1 167257#2 -55602323#6 -gneE91 -55296249#2 -4644987#1 2527#0 4236439#0 4236439#1"/>
    </vehicle>
    <vehicle id="74" depart="101.10">
        <route edges="197960551 55290809#0 3441738#0 55290801 -2527#2 4644987#0 55296249#0 gneE91 -57962409"/>
    </vehicle>
    <vehicle id="75" depart="102.47">
        <route edges="837573373#4 444272568#1 -gneE28"/>
    </vehicle>
    <vehicle id="76" depart="103.83">
        <route edges="55290799 984881209 37777462 55290809#0 3441738#0 55290801 -2527#2 4644987#0 55296249#0 gneE91 55602323#3 55602323#3.91 -8769288#1 3120967#0 773250139#1 331545472#2 -210#1 -55290798#2 -209#3 -3292445#8 -3292445#2"/>
    </vehicle>
    <vehicle id="77" depart="105.20">
        <route edges="1025513686#0 1025513686#1 188924487#0 209#0 55290798#0 210#1 30992002 -3120967#1 167257#2 -55602323#6 -gneE91 -55296249#2 -4644987#1 2527#0 4236439#0 4236439#1"/>
    </vehicle>
    <vehicle id="78" depart="106.57">
        <route edges="180869463#0 133875229 133875236#0 133875236#2 133875245#0 133875245#3 gneE52 gneE52.55 -gneE51 -404611919#1 gneE25 gneE26 gneE43 gneE45 gneE28 -444272568#2 -444272568#0 39645355#0"/>
    </vehicle>
    <vehicle id="79" depart="107.93">
        <route edges="837573373#4 444272568#1 -gneE28"/>
    </vehicle>
    <vehicle id="80" depart="109.30">
        <route edges="180869463#0 133875229 133875236#0 133875236#2 133875245#0 133875245#3 gneE52 gneE52.55 -gneE51 -404611919#1 gneE25 gneE26 gneE43 gneE45 gneE28 -444272568#2 -444272568#0 39645355#0"/>
    </vehicle>
    <vehicle id="81" depart="110.66">
        <route edges="-546225667#1 -8769288#1 8769305 309842640#0 39352131#0 39352131#2 39352131#3 837572187#0 837572187#1 837573373#0 837573373#2 837573373#4"/>
    </vehicle>
    <vehicle id="82" depart="112.03">
        <route edges="55290799 984881209 37777462 55290809#0 3441738#0 55290801 -2527#2 4644987#0 55296249#0 gneE91 55602323#3 55602323#3.91 -8769288#1 3120967#0 773250139#1 331545472#2 -210#1 -55290798#2 -209#3 -3292445#8 -3292445#2"/>
    </vehicle>
    <vehicle id="83" depart="113.40">
        <route edges="-444272568#0 -837573373#3 -837573373#1"/>
    </vehicle>
    <vehicle id="84" depart="114.76">
        <route edges="3441738#0 55290801 -2527#2 4644987#0 55296249#0 gneE91 55602323#3 55602323#3.91 884727976#0 gneE92 -30905#1"/>
    </vehicle>
    <vehicle id="85" depart="116.13">
        <route edges="837573373#4 444272568#1 -gneE28 -gneE45 -gneE43 -gneE26 -gneE25 404611919#0 gneE51 -gneE52 -133875245#3 -133875245#2 -133875236#3 -133875236#1 -133875229 -180869463#1 -133875249#2 -133875226#2 -133875226#0 -3381569#3 94820#0 133875252#0 133875252#3 133875256#0 133875255 4338449#0 4357619 133875223#0 133875223#1 133875223#3 gneE82 133875223#6 133875223#11 133875223#17 984881209 55290796 4346053 3027099#0 505404870#0 351684045#0 133875181#0"/>
    </vehicle>
    <vehicle id="86" depart="117.50">
        <route edges="48207221 2742 52573120 52030081 52030084#0 38964070#0 39348547#1 -3609801#3 2748#0 198245314#1 55296262 4479201#0 4346053 55290810 55290800 55290807 55290799"/>
    </vehicle>
    <vehicle id="87" depart="118.86">
        <route edges="5191097#2 141841564#7 -gneE97 133875252#3 133875256#0 133875255 4338449#0 4357619 133875223#0 133875223#1 133875223#3 gneE82 133875223#6 133875223#11 133875223#17 984881209 37777462 55290809#0 3441738#0 55290801 4236439#0 4236439#1 3441067#0 -203240967#2 -198245314#0"/>
    </vehicle>
    <vehicle id="88" depart="120.23">
        <route edges="4644987#0 55296249#0 gneE91 55602323#3 55602323#3.91 -8769288#1 8769305 309842640#0 39352131#0 39352131#2 39352131#3 837572187#0 837572187#1 837573373#0 837573373#2 837573373#4 444272568#1 -gneE28 -gneE45 -gneE43"/>
    </vehicle>
    <vehicle id="89" depart="121.59">
        <route edges="180869463#0 133875229 133875236#0 133875236#2 133875245#0 133875245#3 gneE52 gneE52.55 -gneE51 -404611919#1 gneE25 gneE26 gneE43 gneE45 gneE28 -444272568#2 -444272568#0 39645355#0"/>
    </vehicle>
    <vehicle id="90" depart="122.96">
        <route edges="1025513686#0 1025513686#1 188924487#0 209#0 55290798#0 210#1 30992002 -3120967#1 167257#2 -55602323#6 -gneE91 -55296249#2 -4644987#1 2527#0 4236439#0 4236439#1"/>
    </vehicle>
    <vehicle id="91" depart="124.33">
        <route edges="55290799 984881209 37777462 55290809#0 3441738#0 55290801 -2527#2 4644987#0 55296249#0 gneE91 55602323#3 55602323#3.91 -8769288#1 3120967#0 773250139#1 331545472#2 -210#1 -55290798#2 -209#3 -3292445#8 -3292445#2"/>
    </vehicle>
    <vehicle id="92" depart="125.69">
        <route edges="30992002 -3120967#1 8769305 309842640#0 39352131#0 39352131#2 39352131#3 837572187#0 837572187#1 837573373#0 837573373#2 837573373#4"/>
    </vehicle>
    <vehicle id="93" depart="127.06">
        <route edges="837573373#4 444272568#1 -gneE28"/>
    </vehicle>
    <vehicle id="94" depart="128.43">
        <route edges="-351684503 -351685326 -55290805 34243632#0 133875195#0 133875195#3 55290800 55290807 55290799 984881209 37777462 55290809#0 3441738#0"/>
    </vehicle>
    <vehicle id="95" depart="129.79">
        <route edges="37777462 55290809#0 3441738#0 55290801 -2527#2 4644987#0 55296249#0 gneE91 55602323#3 55602323#3.91 -8769288#1 8769305 309842640#0 39352131#0 39352131#2 39352131#3 837572187#0 837572187#1 837573373#0 837573373#2 837573373#4 444272568#1 3098972#0"/>
    </vehicle>
    <vehicle id="96" depart="131.16">
        <route edges="837573373#4 444272568#1 -gneE28 -gneE45 -gneE43 -gneE26 -gneE25 404611919#0 gneE51 -gneE52 -133875245#3 -133875245#2 -133875236#3 -133875236#1 -133875229 -180869463#1 -133875249#2 -133875226#2 -133875226#0 -3381569#3 94820#0 133875252#0 133875252#3 4338448#0 48665005 115952095#0 -546225667#1"/>
    </vehicle>
    <vehicle id="97" depart="132.52">
        <route edges="984881209 37777462 55290809#0 3441738#0 55290801 4236439#0 4236439#1 3441067#0 -203240967#2 -198245314#0"/>
    </vehicle>
    <vehicle id="98" depart="133.89">
        <route edges="55296262 197960551 55290809#0 3441738#0"/>
    </vehicle>
    <vehicle id="99" depart="135.26">
        <route edges="198245314#1 55296262 197960551 55290809#0 3441738#0 55290801 4236439#0"/>
    </vehicle>
    <vehicle id="100" depart="136.62">
        <route edges="-3120967#1 167257#2 -55602323#6 -gneE91 -55296249#2 -4644987#1 2527#0 4236439#0 4236439#1 3441067#0 55296262 4479201#0 4346053 3027099#0"/>
    </vehicle>
    <vehicle id="101" depart="137.99">
        <route edges="39352131#3 837572187#0 837572187#1 837573373#0 837573373#2 837573373#4 444272568#1 3098972#0"/>
    </vehicle>
    <vehicle id="102" depart="139.35">
        <route edges="30992002 -3120967#1 8769305 309842640#0 39352131#0 39352131#2 39352131#3 837572187#0 837572187#1 837573373#0 837573373#2 837573373#4"/>
    </vehicle>
    <vehicle id="103" depart="140.72">
        <route edges="3441067#0 55296262 4479201#0 4346053 3027099#0 505404870#0 351684045#0 133875181#0 351684503 3025859#0 3025859#5 3025859#6 3025859#8 133875261#0 133875262#0 133875260#0 48586818 gneE74 54401064 984881214 984881212 54401067"/>
    </vehicle>
    <vehicle id="104" depart="142.09">
        <route edges="326284103 54401064 984881214 984881212 54401067 gneE72 -133875260#3 -133875262#1 -133875261#1 -3025859#8 -3025859#7 -3025859#5 -3025859#3 -351684503 -351685326 -55290805 34243632#0 133875195#0 133875195#3 55290800 55290807 55290799 984881209 37777462"/>
    </vehicle>
    <vehicle id="105" depart="143.45">
        <route edges="gneE25 gneE26 gneE43 gneE45 gneE28 -444272568#2 -444272568#0"/>
    </vehicle>
    <vehicle id="106" depart="144.82">
        <route edges="34243632#0 133875195#0 133875195#3 55290800 55290807 55290799 984881209 37777462 55290809#0 3441738#0 55290801 -2527#2 4644987#0 55296249#0 gneE91 4231695#0"/>
    </vehicle>
    <vehicle id="107" depart="146.19">
        <route edges="133875226#1 133875249#0 180869463#0 133875229 133875236#0 133875236#2 133875245#0 133875245#3 gneE52 gneE52.55 -gneE51 -404611919#1 gneE25 gneE26 gneE43 gneE45 gneE28 -444272568#2 -444272568#0 39645355#0"/>
    </vehicle>
    <vehicle id="108" depart="147.55">
        <route edges="-444272568#0 -837573373#3 -837573373#1"/>
    </vehicle>
    <vehicle id="109" depart="148.92">
        <route edges="2748#0 198245314#1 55296262 197960551 55290809#0 3441738#0 55290801 -2527#2 4644987#0 55296249#0 26753071 -39264086"/>
    </vehicle>
    <vehicle id="110" depart="150.28">
        <route edges="-gneE45 -gneE43 -gneE26 -gneE25 404611919#0 gneE51 -gneE52 -133875245#3 -133875245#2 -133875236#3 -133875236#1 -133875229 -180869463#1 -133875249#2 -133875226#2 -133875226#0 -3381569#3 94820#0 133875252#0 133875252#3 133875256#0 133875255 4338449#0 4357619 133875223#0 133875223#1 133875223#3 gneE82 133875223#6 133875223#11 133875223#17 984881209 37777462 55290809#0 3441738#0 55290801 4236439#0 4236439#1 3441067#0 -203240967#2 -198245314#0"/>
    </vehicle>
    <vehicle id="111" depart="151.65">
        <route edges="55296264#1 55290812#0 48207221 2742 52573120 55290813#0 -4279571 -175773133 683583893 115353253#0 115353253#1 48206750 -54401052#2 -54401052#1 -54401052#0"/>
    </vehicle>
    <vehicle id="112" depart="153.02">
        <route edges="133875252#0 133875252#3 133875256#0 133875255 4338449#0 4357619 133875223#0 133875223#1 133875223#3 gneE82 133875223#6 133875223#11 133875223#17 984881209 37777462 55290809#0 3441738#0"/>
    </vehicle>
    <vehicle id="113" depart="154.38">
        <route edges="-444272568#0 -837573373#3 -837573373#1"/>
    </vehicle>
    <vehicle id="114" depart="155.75">
        <route edges="-444272568#0 -837573373#3 -837573373#1"/>
    </vehicle>
    <vehicle id="115" depart="157.12">
        <route edges="4357619 133875223#0 133875223#1 133875223#3 gneE82 133875223#6 133875223#11 133875223#17 984881209 37777462"/>
    </vehicle>
    <vehicle id="116" depart="158.48">
        <route edges="683648843 683648842#0 683648842#1 3024957 175773133 3024962 48207559 52030084#0 38964070#0 39348547#1 -3609801#3 2748#0 198245314#1 55296262 4479201#0 4346053 55290810 55290800 55290807 55290799 -133875223#19 -133875223#16 -133875223#10 gneE81 -133875223#4 -133875223#1 -133875223#0 -4357619 4340722#0 133875244#0 4338446#0 133875252#0 gneE97 -141841564#11 -5191097#3 403281810#0 403281808"/>
    </vehicle>
    <vehicle id="117" depart="159.85">
        <route edges="4357619 133875223#0 133875223#1 133875223#3 gneE82 133875223#6 133875223#11 133875223#17 984881209 37777462"/>
    </vehicle>
    <vehicle id="118" depart="161.21">
        <route edges="175773133 3024962 48207559 52030084#0 2765 52573118#0 2755#0 52573119 -55290812#1 -2756#1 2757#0 2757#1 1025513686#0 1025513686#1 2761 188924488#0"/>
    </vehicle>
    <vehicle id="119" depart="162.58">
        <route edges="26312537#3 2748#0 198245314#1 55296262 197960551 55290809#0 3441738#0 55290801 -2527#2 4644987#0 55296249#0 gneE91 4231695#0"/>
    </vehicle>
    <vehicle id="120" depart="163.95">
        <route edges="-444272568#0 -837573373#3 -837573373#1"/>
    </vehicle>
    <vehicle id="121" depart="165.31">
        <route edges="4357619 133875223#0 133875223#1 133875223#3 gneE82 133875223#6 133875223#11 133875223#17 984881209 37777462"/>
    </vehicle>
    <vehicle id="122" depart="166.68">
        <route edges="48207221 2742 52573120 52030081 52030084#0 38964070#0 39348547#1 -3609801#3 2748#0 198245314#1 55296262 4479201#0 4346053 55290810 55290800 55290807 55290799"/>
    </vehicle>
    <vehicle id="123" depart="168.05">
        <route edges="133875226#1 133875249#0 180869463#0 133875229 133875236#0 133875236#2 133875245#0 133875245#3 gneE52 gneE52.55 -gneE51 -404611919#1 gneE25 gneE26 gneE43 gneE45 gneE28 -444272568#2 -444272568#0 39645355#0"/>
    </vehicle>
    <vehicle id="124" depart="169.41">
        <route edges="4045612#1 3091989#1 39340468#0 39340468#1 4271799#1 -26637310#2 3126773 39333941#2 127632770#0 167257#2 -55602323#6 -gneE91 -55296249#2 -4644987#1 2527#0 4236439#0 4236439#1 3441067#0 55296262 4479201#0"/>
    </vehicle>
    <vehicle id="125" depart="170.78">
        <route edges="-351684503 -351685326 -55290805 34243632#0 133875195#0 133875195#3 55290800 55290807 55290799 984881209 37777462 55290809#0 3441738#0"/>
    </vehicle>
    <vehicle id="126" depart="172.14">
        <route edges="59661910#0 3441067#0 55296262 4479201#0 4346053 3027099#0 505404870#0 351684045#0 133875181#0 351684503 3025859#0 3025859#5 3025859#6 3025859#8 133875261#0 133875262#0 133875260#0 48586818 gneE74 54401064 192674702#0 279357279#1 192674701"/>
    </vehicle>
    <vehicle id="127" depart="173.51">
        <route edges="-444272568#0 -837573373#3 -837573373#1"/>
    </vehicle>
    <vehicle id="128" depart="174.88">