<?xml version="1.0" encoding="UTF-8"?>
<!-- generated on 2022-04-25 14:37:13.465433 by $Id$ UNKNOWN
  options: -r basicRoutes.rou.xml -d countData.xml -o sampledRoutesBasic.rou.xml
-->
<routes xmlns:xsi="http://www.w3.org/2001/XMLSchema-instance" xsi:noNamespaceSchemaLocation="http://sumo.dlr.de/xsd/routes_file.xsd">
<!-- begin="0.0" end="3600.0" -->
    <vehicle id="0" depart="0.00">
        <route edges="48586336#1 133875263 38963969#0 38963969#1 -192674402#2 -192674402#1 -959553052#4 -959553052#2 -34784840#1 39183706 192668650#2 192668650#3 gneE13 gneE11 3292445#0.4 3292445#3 209#0 55290798#0 210#1 30992002 -3120967#1 8769305 309842640#0 39352131#0 39352131#2 39352131#3 837572187#0 837572187#1 837573373#0 837573373#2 837573373#4 444272568#1 -gneE28"/>
    </vehicle>
    <vehicle id="1" depart="1.42">
        <route edges="-2743#1 2748#0 -37777243#4 37777243#0 198245314#1 55296262 197960551 55290809#0 3441738#0 55290801 -2527#2 4644987#0 2536#0 39333941#2 39333941#4 8769305 32751327 3086252#0 3086251 3086245#1"/>
    </vehicle>
    <vehicle id="2" depart="2.84">
        <route edges="2757#0 2757#1 1025513686#0 1025513686#1 188924487#0 209#0 55290798#0 210#1 30992002 -3120967#1 167257#0 167257#2 884727976#0 546225667#0 115952099#2 -30906#3 38619223#0 133875255 133875259#0 133875244#0 4338446#0 133875252#0 133875252#1"/>
    </vehicle>
    <vehicle id="3" depart="4.27">
        <route edges="198245314#1 55296262 197960551 55290809#0 3441738#0 55290801 -2527#2 4644987#0 2536#0 39333941#2 39333941#4 3120967#0 773250139#1 331545472#2"/>
    </vehicle>
    <vehicle id="4" depart="5.69">
        <route edges="3026120 -351684503 -351685326 -55290805 34243632#0 133875195#0 133875195#3 55290800 55290807 55290799 -133875223#19 -133875223#16 -133875223#10 gneE81 -133875223#4 -133875223#1 -133875223#0 -4357619 4340722#0 133875244#0 4338446#0 133875252#0 7995397#0 -141841564#11 -141841564#6 -141841564#2 -141841564#1 35391036#0 -444272568#0 39645355#0"/>
    </vehicle>
    <vehicle id="5" depart="7.11">
        <route edges="-188053689 -2955307#1 -3026118#5 -3025859#5 -3025859#3 -351684503 -351685326 -55290805 34243632#0 133875195#0 133875195#3 55290800 55290807 55290799 -133875223#19 -133875223#16 -133875223#10 gneE81 -133875223#4 -133875223#1 -133875223#0 -4357619 4340722#0 133875244#0 4338446#0 133875252#0 7995397#0 -141841564#11 -141841564#6 -141841564#2 -141841564#1 35391036#0 -444272568#0 39645355#0 39645355#1"/>
    </vehicle>
    <vehicle id="6" depart="8.53">
        <route edges="-188053689 -2955307#1 -3026118#5 -3025859#5 -3025859#3 -351684503 -351685326 -55290805 34243632#0 133875195#0 133875195#3 55290800 55290807 55290799 -133875223#19 -133875223#16 -133875223#10 gneE81 -133875223#4 -133875223#1 -133875223#0 -4357619 4340722#0 133875244#0 4338446#0 133875252#0 7995397#0 -141841564#11 -141841564#6 -141841564#2 -141841564#1 35391036#0 -444272568#0 39645355#0 39645355#1"/>
    </vehicle>
    <vehicle id="7" depart="9.96">
        <route edges="-2955307#1 -3026118#5 -3025859#5 -3025859#3 -351684503 -351685326 -55290805 34243632#0 133875195#0 133875195#3 55290800 55290807 55290799 984881209 37777462 55290809#0 3441738#0 55290801 -2527#2 4644987#0 2536#0 39333941#2 39333941#4 8769305 32751327"/>
    </vehicle>
    <vehicle id="8" depart="11.38">
        <route edges="55290800 55290807 55290799 984881209 37777462 55290809#0 3441738#0 55290801 4236439#0 4236439#1 3441067#0 -203240967#2 -198245314#0"/>
    </vehicle>
    <vehicle id="9" depart="12.80">
        <route edges="2757#1 1025513686#0 1025513686#1 188924487#0 209#0 55290798#0 210#1 30992002 -3120967#1 167257#0 167257#2"/>
    </vehicle>
    <vehicle id="10" depart="14.22">
        <route edges="-3609801#3 2748#0 -37777243#4 37777243#0 198245314#1 55296262 4479201#0 4346053 55290810 55290800 55290807 55290799 -133875223#19 -133875223#16 -133875223#10 gneE81 -133875223#4 -133875223#1 -133875223#0 -4357619 4340722#0 133875244#0 133875232#0 3381569#0 133875226#0 133875226#1 133875249#0 180869463#0"/>
    </vehicle>
    <vehicle id="11" depart="15.65">
        <route edges="-3024966#1 3024962 48207559 52030084#0 38964070#0 39348547#1 -3609801#3 2748#0 -37777243#4 37777243#0 198245314#1 55296262 197960551 55290809#0 3441738#0 -37728001#5 -3441624#8"/>
    </vehicle>
    <vehicle id="12" depart="17.07">
        <route edges="-32751327 309842640#0 -3086257#1 -3086258 331545472#2 3086259#0 3086261 3091989#1 -2524 30991997#1 1040747475 55296264#1 55290812#0 48207221 2742 52573120 52030081 52030084#0 38964070#0 50842685#0 50842685#1 2745#0"/>
    </vehicle>
    <vehicle id="13" depart="18.49">
        <route edges="746445107 35391036#0 -444272568#0 -837573373#3"/>
    </vehicle>
    <vehicle id="14" depart="19.91">
        <route edges="52030081 52030084#0 38964070#0 39348547#1 -3609801#3 2748#0 -37777243#4 37777243#0 198245314#1 55296262 197960551 55290809#0 3441738#0 55290801 4236439#0"/>
    </vehicle>
    <vehicle id="15" depart="21.34">
        <route edges="gneE53 -gneE52 -133875245#3 -133875245#2 -133875236#3 -133875236#1 746445108 746445107 35391036#0 -444272568#0 -837573373#3 -837573373#1"/>
    </vehicle>
    <vehicle id="16" depart="22.76">
        <route edges="-4479202#1 gneE81 -133875223#4 -133875223#1 -133875223#0 -4357619 4340722#0 133875244#0 4338446#0 133875252#0 7995397#0 -141841564#11 -141841564#6 -141841564#2 -141841564#1 35391036#0 -444272568#0 39645355#0"/>
    </vehicle>
    <vehicle id="17" depart="24.18">
        <route edges="55290801 4236439#0 4236439#1 3441067#0 55296262 4479201#0 4346053 3027099#0 505404870#0 351684045#0 133875181#0 351684503 3025859#0 3025859#5 3025859#6 3025859#8 133875261#0 133875262#0 133875260#0 48586818 gneE74 54401064 192674702#0 279357279#1 192674701 58295596#0 -240290973#1 48586336#1 133875263 4893261 133875264 38963953#0"/>
    </vehicle>
    <vehicle id="18" depart="25.60">
        <route edges="167208#2 822839889 57962409 55602323#3 -8769288#1 -167257#1 8769305 309842640#0 39352131#0 39352131#2 39352131#3 837572187#0 837572187#1 837573373#0 837573373#2 837573373#4"/>
    </vehicle>
    <vehicle id="19" depart="27.02">
        <route edges="3441740#0 59661910#0 3441067#0 55296262 4479201#0 4346053 55290810 55290800 55290807 55290799 -133875223#19 -133875223#16 -133875223#10 gneE81 -133875223#4 -133875223#1 -133875223#0 -4357619 4340722#0 133875244#0 4338446#0 133875252#0 7995397#0 -141841564#11 -141841564#6 -141841564#2 -141841564#1 35391036#0 444272568#1"/>
    </vehicle>
    <vehicle id="20" depart="28.45">
        <route edges="192668650#3 gneE13 gneE11 3292445#0.4 3292445#3 209#0 55290798#0 210#1 30992002 -3120967#1 8769305 309842640#0 39352131#0 39352131#2 39352131#3 837572187#0 837572187#1 837573373#0 837573373#2 837573373#4 444272568#1 -gneE28 -gneE45 -gneE43 -gneE26"/>
    </vehicle>
    <vehicle id="21" depart="29.87">
        <route edges="55290799 -133875223#19 -133875223#16 -133875223#10 gneE81 -133875223#4 -133875223#1 -133875223#0 -4357619 4340722#0 133875244#0 4338446#0 133875252#0 7995397#0 -141841564#11 -141841564#6 -141841564#2 -141841564#1 35391036#0 -444272568#0"/>
    </vehicle>
    <vehicle id="22" depart="31.29">
        <route edges="38964070#0 39348547#1 -3609801#3 2748#0 -37777243#4 37777243#0 198245314#1 55296262 4479201#0 4346053 55290810 55290800 55290807 55290799 -133875223#19 -133875223#16 -133875223#10"/>
    </vehicle>
    <vehicle id="23" depart="32.71">
        <route edges="55602323#3 -8769288#1 -167257#1 8769305 309842640#0 39352131#0 39352131#2 39352131#3 837572187#0 837572187#1 837573373#0 837573373#2 837573373#4 444272568#1 -gneE28 -gneE45 -gneE43 -gneE26"/>
    </vehicle>
    <vehicle id="24" depart="34.14">
        <route edges="26312537#3 3609801#1 -39348547#2 39348546#0 52573118#0 2755#0 52573119 -55290812#1 -2756#1 2757#0 2757#1 1025513686#0 1025513686#1 188924487#0 209#0 55290798#0 210#1 30992002 -3120967#1 8769305 309842640#0 39352131#0 39352131#2 39352131#3 837572187#0 3600469#0"/>
    </vehicle>
    <vehicle id="25" depart="35.56">
        <route edges="26312537#3 2743#0 -2743#1 2748#0 -37777243#4 37777243#0 198245314#1 55296262 4479201#0 4346053 55290810 55290800 55290807 55290799 -133875223#19 -133875223#16 -133875223#10 gneE81 -133875223#4 -133875223#1 -133875223#0 -4357619 4340722#0 133875244#0 133875232#0 3381569#0 133875226#0 133875226#1 133875249#0 180869463#0 133875229 133875236#0 133875236#2 133875245#0 133875245#3 gneE52 gneE52.55 -gneE51 -404611919#1"/>
    </vehicle>
    <vehicle id="26" depart="36.98">
        <route edges="30905#0 115952099#2 -30906#3 38619223#0 133875255 133875259#0 133875244#0 4338446#0 133875252#0 7995397#0 -141841564#11 -141841564#6 -141841564#2 -141841564#1 35391036#0 -444272568#0"/>
    </vehicle>
    <vehicle id="27" depart="38.40">
        <route edges="-959553052#2 -34784840#1 39183706 192668650#2 192668650#3 gneE13 gneE11 3292445#0.4 3292445#3 209#0 55290798#0 210#1 30992002 -3120967#1 8769305 309842640#0 39352131#0 39352131#2 39352131#3 837572187#0 837572187#1 837573373#0 837573373#2 837573373#4 444272568#1 -gneE28 -gneE45 -gneE43 -gneE26 -gneE25 404611919#0"/>
    </vehicle>
    <vehicle id="28" depart="39.83">
        <route edges="133875259#0 133875244#0 4338446#0 133875252#0 7995397#0 -141841564#11 -141841564#6 -141841564#2 -141841564#1 35391036#0 -444272568#0"/>
    </vehicle>
    <vehicle id="29" depart="41.25">
        <route edges="50842685#1 -39348547#2 39348547#1 -3609801#3 2748#0 -37777243#4 37777243#0 198245314#1 55296262 4479201#0 4346053 55290810 55290800 55290807 55290799 -133875223#19 -133875223#16 -133875223#10 gneE81 -133875223#4 -133875223#1 -133875223#0 -4357619 4340722#0 133875244#0 133875232#0 3381569#0 133875226#0 133875226#1 133875249#0 180869463#0 133875229 133875236#0 133875236#2 133875245#0 133875245#3 gneE52 gneE52.55 -gneE51"/>
    </vehicle>
    <vehicle id="30" depart="42.67">
        <route edges="837573373#2 837573373#4 444272568#1 -gneE28 -gneE45 -gneE43 -gneE26 -gneE25 404611919#0 gneE51 -gneE52 -133875245#3 -133875245#2 -133875236#3 -133875236#1 -133875229 -180869463#1 -133875249#2 -133875226#2 -133875226#0 -3381569#3 94820#0 133875252#0 133875252#1 133875252#3 4338448#0 48665005"/>
    </vehicle>
    <vehicle id="31" depart="44.09">
        <route edges="3292445#3 209#0 55290798#0 210#1 30992002 -3120967#1 8769305 309842640#0 39352131#0 39352131#2 39352131#3 837572187#0 837572187#1 837573373#0 837573373#2 837573373#4 444272568#1 -gneE28 gneE33"/>
    </vehicle>
    <vehicle id="32" depart="45.52">
        <route edges="180869463#0 133875229 746445108 746445107 35391036#0 -444272568#0 -837573373#3"/>
    </vehicle>
    <vehicle id="33" depart="46.94">
        <route edges="-3381569#3 94820#0 133875252#0 133875252#1 133875252#3 133875256#0 133875255 4338449#0 4357619 133875223#0 133875223#1 133875223#3 gneE82 133875223#6 133875223#11 133875223#17 984881209 37777462 55290809#0 3441738#0 55290801 4236439#0 4236439#1 3441067#0"/>
    </vehicle>
    <vehicle id="34" depart="48.36">
        <route edges="2757#0 2757#1 1025513686#0 1025513686#1 188924487#0 209#0 55290798#0 210#1 30992002 -3120967#1 167257#0 167257#2 -55602323#6 4231695#0 4231695#3"/>
    </vehicle>
    <vehicle id="35" depart="49.78">
        <route edges="-4479202#1 133875223#6 133875223#11 133875223#17 984881209 37777462 55290809#0 3441738#0 55290801 4236439#0 4236439#1 3441067#0 -203240967#2"/>
    </vehicle>
    <vehicle id="36" depart="51.21">
        <route edges="133875193#2 180869463#0 133875229 746445108 746445107 35391036#0 -444272568#0 -837573373#3 -837573373#1"/>
    </vehicle>
    <vehicle id="37" depart="52.63">
        <route edges="-55290805 34243632#0 133875195#0 133875195#3 55290800 55290807 55290799 -133875223#19 -133875223#16 -133875223#10 gneE81 -133875223#4 -133875223#1 -133875223#0 -4357619 4340722#0 133875244#0 4338446#0 133875252#0 7995397#0 -141841564#11 -141841564#6 -141841564#2 -141841564#1 35391036#0 -444272568#0"/>
    </vehicle>
    <vehicle id="38" depart="54.05">
        <route edges="4271799#1 4045612#0 4045612#1 3091989#1 -2524 30991997#1 1040747475 55296264#1 55290812#0 48207221 2742 52573120 52030081 52030084#0 38964070#0 50842685#0 50842685#1 2745#0 192671933#0 3025839#0 -133875261#1 -3025859#8 -3025859#7 -3025859#5 -3026116#5 -54516245#0"/>
    </vehicle>
    <vehicle id="39" depart="55.47">
        <route edges="-133875236#3 -133875236#1 746445108 746445107 35391036#0 -444272568#0 -837573373#3"/>
    </vehicle>
    <vehicle id="40" depart="56.89">
        <route edges="984881214 984881212 54401067 gneE72 -133875260#3 -133875262#1 -133875261#1 -3025859#8 -3025859#7 -3025859#5 -3025859#3 -351684503 -351685326 -55290805 34243632#0 133875195#0 133875195#3 55290800 55290807 55290799 984881209 37777462 55290809#0 3441738#0 55290801 -2527#2 4644987#0 55296249#0 26753071 -39264086"/>
    </vehicle>
    <vehicle id="41" depart="58.32">
        <route edges="-4479202#1 gneE81 -133875223#4 -133875223#1 -133875223#0 -4357619 4340722#0 133875244#0 4338446#0 133875252#0 7995397#0 -141841564#11 -141841564#6 -141841564#2 -141841564#1 35391036#0 -444272568#0 -837573373#3"/>
    </vehicle>
    <vehicle id="42" depart="59.74">
        <route edges="48207559 52030084#0 38964070#0 39348547#1 -3609801#3 2748#0 -37777243#4 37777243#0 198245314#1 55296262 197960551 55290809#0 3441738#0 55290801 -2527#2 4644987#0"/>
    </vehicle>
    <vehicle id="43" depart="61.16">
        <route edges="39348547#1 -3609801#3 2748#0 -37777243#4 37777243#0 198245314#1 55296262 197960551 55290809#0 3441738#0 55290801 -2527#2 4644987#0"/>
    </vehicle>
    <vehicle id="44" depart="62.58">
        <route edges="59661910#0 3441067#0 55296262 4479201#0 4346053 3027099#0 505404870#0 351684045#0 133875181#0 351684503 3025859#0 -3026116#5"/>
    </vehicle>
    <vehicle id="45" depart="64.01">
        <route edges="-188053689 -2955307#1 -3026118#5 -3025859#5 -3025859#3 -351684503 -351685326 -55290805 34243632#0 133875195#0 133875195#3 55290800 55290807 55290799 -133875223#19 -133875223#16 -133875223#10 gneE81 -133875223#4 -133875223#1 -133875223#0 -4357619 4340722#0 133875244#0 4338446#0 133875252#0 7995397#0 -141841564#11 -141841564#6 -141841564#2 -141841564#1 35391036#0 -444272568#0 39645355#0 39645355#1"/>
    </vehicle>
    <vehicle id="46" depart="65.43">
        <route edges="-188053689 -2955307#1 -3026118#5 -3025859#5 -3025859#3 -351684503 -351685326 -55290805 34243632#0 133875195#0 133875195#3 55290800 55290807 55290799 -133875223#19 -133875223#16 -133875223#10 gneE81 -133875223#4 -133875223#1 -133875223#0 -4357619 4340722#0 133875244#0 4338446#0 133875252#0 7995397#0 -141841564#11 -141841564#6 -141841564#2 -141841564#1 35391036#0 -444272568#0 39645355#0 39645355#1"/>
    </vehicle>
    <vehicle id="47" depart="66.85">
        <route edges="-41361248 -2743#1 -26312537#4 26312537#3 3609801#1 -39348547#2 39348546#0 52573118#0 2755#0 52573119 -55290812#1 -2756#1 2757#0 2757#1 1025513686#0 1025513686#1 188924487#0 209#0 55290798#0 210#1 30992002 773250139#1"/>
    </vehicle>
    <vehicle id="48" depart="68.27">
        <route edges="-4271802 4271799#1 4045612#0 4045612#1 3091989#1 -2524 30991997#1 1040747475 2757#1 1025513686#0 1025513686#1 188924487#0 -3292445#8 -3292445#2 gneE12 gneE13"/>
    </vehicle>
    <vehicle id="49" depart="69.70">
        <route edges="-54516245#0 3026120 -351684503 -351685326 -55290805 34243632#0 133875195#0 133875195#3 55290800 55290807 55290799 -133875223#19 -133875223#16 -133875223#10 gneE81 -133875223#4 -133875223#1 -133875223#0 -4357619 4340722#0 133875244#0 4338446#0 133875252#0 7995397#0 -141841564#11 -141841564#6 -141841564#2 -141841564#1 35391036#0 -444272568#0 39645355#0"/>
    </vehicle>
    <vehicle id="50" depart="71.12">
        <route edges="-3381569#3 94820#0 133875252#0 133875252#1 133875252#3 133875256#0 133875255 4338449#0 4357619 133875223#0 133875223#1 133875223#3 gneE82 133875223#6 133875223#11 133875223#17 984881209 37777462 55290809#0 3441738#0 55290801 4236439#0 4236439#1 3441067#0"/>
    </vehicle>
    <vehicle id="51" depart="72.54">
        <route edges="-133875261#1 -3025859#8 -3025859#7 -3025859#5 -3025859#3 -351684503 -351685326 -55290805 34243632#0 133875195#0 133875195#3 55290800 55290807 55290799 984881209 37777462 55290809#0 3441738#0 55290801 4236439#0 39333603 -3441740#1"/>
    </vehicle>
    <vehicle id="52" depart="73.96">
        <route edges="34243632#0 133875195#0 133875195#3 55290800 55290807 55290799 984881209 37777462 55290809#0 3441738#0 55290801 -2527#2 4644987#0 2536#0 39333941#2 39333941#4"/>
    </vehicle>
    <vehicle id="53" depart="75.39">
        <route edges="-3381569#3 94820#0 133875252#0 133875252#1 133875252#3 133875256#0 133875255 4338449#0 4357619 133875223#0 133875223#1 133875223#3 gneE82 133875223#6 133875223#11 133875223#17 984881209 37777462 55290809#0 3441738#0 55290801 4236439#0 4236439#1 3441067#0"/>
    </vehicle>
    <vehicle id="54" depart="76.81">
        <route edges="2534#0 48207221 2742 52573120 52030081 52030084#0 38964070#0 39348547#1 -3609801#3 2748#0 -37777243#4 37777243#0 198245314#1 55296262 4479201#0 4346053 55290810 55290800 3027057"/>
    </vehicle>
    <vehicle id="55" depart="78.23">
        <route edges="-3086252#1 -32751327 309842640#0 39352131#0 39352131#2 39352131#3 837572187#0 837572187#1 837573373#0 837573373#2 837573373#4 444272568#1 -gneE28 -gneE45 -gneE43"/>
    </vehicle>
    <vehicle id="56" depart="79.65">
        <route edges="-133875223#10 gneE81 -133875223#4 -133875223#1 -133875223#0 -4357619 4340722#0 133875244#0 4338446#0 133875252#0 7995397#0 -141841564#11 -141841564#6 -141841564#2 -141841564#1 35391036#0 -444272568#0"/>
    </vehicle>
    <vehicle id="57" depart="81.07">
        <route edges="-54516245#0 3026120 -351684503 -351685326 -55290805 34243632#0 133875195#0 133875195#3 55290800 55290807 55290799 -133875223#19 -133875223#16 -133875223#10 gneE81 -133875223#4 -133875223#1 -133875223#0 -4357619 4340722#0 133875244#0 4338446#0 133875252#0 7995397#0 -141841564#11 -141841564#6 -141841564#2 -141841564#1 35391036#0 -444272568#0 39645355#0"/>
    </vehicle>
    <vehicle id="58" depart="82.50">
        <route edges="683648842#0 683648842#1 3024957 175773133 3024962 48207559 52030084#0 2765 52573118#0 2755#0 52573119 -55290812#1 -2756#1 2757#0 2757#1 1025513686#0 1025513686#1 188924487#0 209#0 55290798#0 210#1 30992002 -3120967#1 167257#0 167257#2 -55602323#6 -57962409 -822839889"/>
    </vehicle>
    <vehicle id="59" depart="83.92">
        <route edges="4338446#0 133875252#0 133875252#1 133875252#3 133875256#0 133875255 4338449#0 4357619 133875223#0 133875223#1 133875223#3 gneE82 133875223#6 133875223#11 133875223#17 984881209 37777462 55290809#0 3441738#0 55290801 4236439#0 4236439#1 3441067#0 -203240967#2 -198245314#0"/>
    </vehicle>
    <vehicle id="60" depart="85.34">
        <route edges="837573373#2 837573373#4 444272568#1 -gneE28 -gneE45 -gneE43 -gneE26 -gneE25 404611919#0 gneE51 -gneE53"/>
    </vehicle>
    <vehicle id="61" depart="86.76">
        <route edges="2757#1 1025513686#0 1025513686#1 188924487#0 209#0 55290798#0 210#1 30992002 -3120967#1 167257#0 167257#2"/>
    </vehicle>
    <vehicle id="62" depart="88.19">
        <route edges="55290807 55290799 984881209 37777462 55290809#0 3441738#0 55290801 4236439#0"/>
    </vehicle>
    <vehicle id="63" depart="89.61">
        <route edges="-4231696#0 -4231695#2 55602323#3 884727976#0 546225667#0 3441624#0 37728001#0 55290801 4236439#0 4236439#1 3441067#0 55296262 4479201#0 4346053 3027099#0 505404870#0 351684045#0"/>
    </vehicle>
    <vehicle id="64" depart="91.03">
        <route edges="4045612#0 4045612#1 3091989#1 -2524 30991997#1 1040747475 55296264#1 55290812#0 48207221 2742 52573120 52030081 52030084#0 38964070#0 50842685#0 50842685#1 2745#0 192671933#0 3025839#0 -133875261#1 -3025859#8 -3025859#7 3026118#0 3026118#6"/>
    </vehicle>
    <vehicle id="65" depart="92.45">
        <route edges="59661910#0 3441067#0 55296262 197960551 55290809#0 3441738#0 55290801 -2527#2 4644987#0 2536#0 39333941#2 39333941#4 3120967#0 773250139#1 331545472#2 -210#1"/>
    </vehicle>
    <vehicle id="66" depart="93.88">
        <route edges="-2745#1 -3609801#3 2748#0 -37777243#4 37777243#0 198245314#1 55296262 197960551 55290809#0 3441738#0 55290801 -2527#2 4644987#0 55296249#0 26753071"/>
    </vehicle>
    <vehicle id="67" depart="95.30">
        <route edges="32751328 1025513686#0 1025513686#1 188924487#0 -3292445#8 -3292445#2 gneE12 -192668650#4 -192668650#2"/>
    </vehicle>
    <vehicle id="68" depart="96.72">
        <route edges="26738340#0 50842685#1 -39348547#2 39348547#1 -3609801#3 2748#0 -37777243#4 37777243#0 198245314#1 55296262 4479201#0 4346053 55290810 55290800 55290807 55290799 -133875223#19 -133875223#16 -133875223#10 gneE81 -133875223#4 -133875223#1 -133875223#0 -4357619 4340722#0 133875244#0 133875232#0 3381569#0 133875226#0 133875226#1 133875249#0"/>
    </vehicle>
    <vehicle id="69" depart="98.14">
        <route edges="133875249#0 180869463#0 133875229 746445108 746445107 35391036#0 -444272568#0 -837573373#3"/>
    </vehicle>
    <vehicle id="70" depart="99.57">
        <route edges="-2955307#2 -2955307#1 -3026118#5 -3025859#5 -3025859#3 -351684503 -351685326 -55290805 34243632#0 133875195#0 133875195#3 55290800 55290807 55290799 984881209 37777462 55290809#0 3441738#0 55290801 -2527#2 4644987#0 2536#0 39333941#2 39333941#4 8769305 309842640#0"/>
    </vehicle>
    <vehicle id="71" depart="100.99">
        <route edges="-133875261#1 -3025859#8 -3025859#7 -3025859#5 -3025859#3 -351684503 -351685326 -55290805 34243632#0 133875195#0 133875195#3 55290800 55290807 55290799 984881209 37777462 55290809#0 3441738#0 55290801 -2527#2 4644987#0"/>
    </vehicle>
    <vehicle id="72" depart="102.41">
        <route edges="-133875226#0 -3381569#3 94820#0 133875252#0 133875252#1 133875252#3 133875256#0 133875255 4338449#0 4357619 133875223#0 133875223#1 133875223#3 gneE82 133875223#6 133875223#11 133875223#17 984881209 37777462 55290809#0 3441738#0 55290801 4236439#0 39333603"/>
    </vehicle>
    <vehicle id="73" depart="103.83">
        <route edges="7995397#0 -141841564#11 -141841564#6 -141841564#2 -141841564#1 35391036#0 -444272568#0 -837573373#3"/>
    </vehicle>
    <vehicle id="74" depart="105.25">
        <route edges="2757#0 2757#1 1025513686#0 1025513686#1 188924487#0 209#0 2523#0 2524 39340468#0 39340468#1"/>
    </vehicle>
    <vehicle id="75" depart="106.68">
        <route edges="-3292451#3 -3292451#2 899645883#2 -899645883#4 -899645883#1 gneE11 3292445#0.4 3292445#3 209#0 55290798#0 210#1 30992002 -3120967#1 8769305 309842640#0 39352131#0 39352131#2 39352131#3 837572187#0 837572187#1 837573373#0 837573373#2 837573373#4 444272568#1"/>
    </vehicle>
    <vehicle id="76" depart="108.10">
        <route edges="3086258 3086257#0 39352131#0 39352131#2 39352131#3 837572187#0 837572187#1 837573373#0 837573373#2 837573373#4 444272568#1 -gneE28 -gneE45 -gneE43 -gneE26 -gneE25 404611919#0 gneE51 -gneE53"/>
    </vehicle>
    <vehicle id="77" depart="109.52">
        <route edges="1025513686#1 188924487#0 209#0 2523#0 2524 39340468#0 4271800"/>
    </vehicle>
    <vehicle id="78" depart="110.94">
        <route edges="26312537#3 2743#0 -2743#1 2748#0 -37777243#4 37777243#0 198245314#1 55296262 4479201#0 4346053 55290810 55290800 55290807 55290799 -133875223#19 -133875223#16 -133875223#10 gneE81 -133875223#4 -133875223#1 -133875223#0 -4357619 4340722#0 133875244#0 133875232#0 3381569#0 133875226#0 940770422#0 553586920#0"/>
    </vehicle>
    <vehicle id="79" depart="112.37">
        <route edges="546225667#0 3441624#0 37728001#0 55290801 4236439#0 4236439#1 3441067#0 55296262 4479201#0"/>
    </vehicle>
    <vehicle id="80" depart="113.79">
        <route edges="-39645355#0 837573373#4 444272568#1 -gneE28 -gneE45 -gneE43 -gneE26 -gneE25 404611919#0 gneE51 -gneE52 -133875245#3 -133875245#2 -133875236#3 -133875236#1 -133875229 -180869463#1 -133875249#2 -133875226#2 -133875226#0 -3381569#3 94820#0 133875252#0 133875252#1 133875252#3 133875256#0 133875255 4338449#0 4357619 133875223#0 133875223#1 133875223#3 gneE82 133875223#6 133875223#11 133875223#17 984881209"/>
    </vehicle>
    <vehicle id="81" depart="115.21">
        <route edges="-55290805 34243632#0 133875195#0 133875195#3 55290800 55290807 55290799 -133875223#19 -133875223#16 -133875223#10 gneE81 -133875223#4 -133875223#1 -133875223#0 -4357619 4340722#0 133875244#0 4338446#0 133875252#0 7995397#0 -141841564#11 -141841564#6 -141841564#2 -141841564#1 35391036#0 -444272568#0"/>
    </vehicle>
    <vehicle id="82" depart="116.63">
        <route edges="180869463#0 133875229 746445108 746445107 35391036#0 -444272568#0 -837573373#3"/>
    </vehicle>
    <vehicle id="83" depart="118.06">
        <route edges="-3086247 -39352131#2 3086250 -3086252#1 -32751327 309842640#0 39352131#0 39352131#2 39352131#3 837572187#0 837572187#1 837573373#0 837573373#2 837573373#4"/>
    </vehicle>
    <vehicle id="84" depart="119.48">
        <route edges="192668650#3 gneE13 gneE11 3292445#0.4 3292445#3 209#0 55290798#0 210#1 30992002 -3120967#1 8769305 309842640#0 39352131#0 39352131#2 39352131#3 837572187#0 837572187#1 837573373#0 837573373#2 837573373#4 444272568#1 -gneE28"/>
    </vehicle>
    <vehicle id="85" depart="120.90">
        <route edges="-34784840#1 39183706 192668650#2 192668650#3 gneE13 gneE11 3292445#0.4 3292445#3 209#0 55290798#0 210#1 30992002 -3120967#1 8769305 309842640#0 39352131#0 39352131#2 39352131#3 837572187#0 837572187#1 837573373#0 837573373#2 837573373#4 444272568#1 -gneE28 -gneE45 -gneE43"/>
    </vehicle>
    <vehicle id="86" depart="122.32">
        <route edges="-55296249#2 -4644987#1 2527#0 4236439#0 4236439#1 3441067#0 55296262 4479201#0 4346053 3027099#0 505404870#0 351684045#0 133875181#0 351684503 3025859#0 3025859#5 3025859#6 3025859#8 133875261#0 133875262#0 133875260#0 48586818 gneE74 54401064 984881214 984881212"/>
    </vehicle>
    <vehicle id="87" depart="123.75">
        <route edges="3026120 -351684503 -351685326 -55290805 34243632#0 133875195#0 133875195#3 55290800 55290807 55290799 984881209 37777462 55290809#0 3441738#0 55290801 -2527#2 4644987#0 55296249#0 26753071 167208#2"/>
    </vehicle>
    <vehicle id="88" depart="125.17">
        <route edges="4236439#1 3441067#0 55296262 4479201#0 4346053 55290810 55290800 55290807 55290799 -133875223#19 -133875223#16 -133875223#10 gneE81 -133875223#4 -133875223#1 -133875223#0 -4357619 4340722#0 133875244#0 4338446#0 133875252#0 7995397#0 -141841564#11 -141841564#6 -141841564#2 -141841564#1 35391036#0 444272568#1 -gneE28"/>
    </vehicle>
    <vehicle id="89" depart="126.59">
        <route edges="30905#0 115952099#2 -30906#3 38619223#0 133875255 133875259#0 133875244#0 4338446#0 133875252#0 7995397#0 -141841564#11 -141841564#6 -141841564#2 -141841564#1 35391036#0 -444272568#0"/>
    </vehicle>
    <vehicle id="90" depart="128.01">
        <route edges="837573373#4 444272568#1 -gneE28 -gneE45 -gneE43 -gneE26 -gneE25 404611919#0 gneE51 -gneE52 -133875245#3 -133875245#2 -133875236#3 -133875236#1 746445108 746445107 164650608 141841564#2 141841564#3"/>
    </vehicle>
    <vehicle id="91" depart="129.44">
        <route edges="-39645355#0 837573373#4 444272568#1 -gneE28 -gneE45 -gneE43 -gneE26 -gneE25 404611919#0 gneE51 -gneE52 -133875245#3 -133875245#2 -133875236#3 -133875236#1 -133875229 -180869463#1 -133875249#2 -133875226#2 -133875226#0 -3381569#3 94820#0 133875252#0 133875252#1 133875252#3 4338448#0 48665005 115952095#0 -546225667#1 -884727976#2 -8769288#1 -167257#1 3120967#0 773250139#1 331545472#2 3086259#0 3086261 3091989#1 -2524 30991997#1 1040747475 55296264#1"/>
    </vehicle>
    <vehicle id="92" depart="130.86">
        <route edges="2757#1 1025513686#0 1025513686#1 188924487#0 209#0 55290798#0 210#1 30992002 -3120967#1 167257#0 167257#2 884727976#0 546225667#0 115952099#2 -30906#3 38619223#0 133875255 133875259#0 133875244#0 133875232#0 3381569#0 133875226#0 133875226#1 133875249#0 180869463#0 133875229 133875236#0 133875236#2 133875245#0 133875245#3 gneE52 gneE52.55 -gneE53"/>
    </vehicle>
    <vehicle id="93" depart="132.28">
        <route edges="55602323#3 -8769288#1 -167257#1 8769305 309842640#0 39352131#0 39352131#2 39352131#3 837572187#0 837572187#1 837573373#0 837573373#2 837573373#4 444272568#1 -gneE28 -gneE45 -gneE43 -gneE26"/>
    </vehicle>
    <vehicle id="94" depart="133.70">
        <route edges="-gneE43 -gneE26 -gneE25 404611919#0 gneE51 -gneE52 -133875245#3 -133875245#2 -133875236#3 -133875236#1 746445108 746445107 35391036#0 -444272568#0 -837573373#3"/>
    </vehicle>
    <vehicle id="95" depart="135.12">
        <route edges="-267651978 -141841564#2 -141841564#1 35391036#0 -444272568#0 39645355#0"/>
    </vehicle>
    <vehicle id="96" depart="136.55">
        <route edges="48586336#1 133875263 38963969#0 38963969#1 -192674402#2 -192674402#1 -959553052#4 -959553052#2 -34784840#1 39183706 192668650#2 192668650#3 gneE13 gneE11 3292445#0.4 3292445#3 209#0 55290798#0 210#1 30992002 -3120967#1 8769305 309842640#0 39352131#0 39352131#2 39352131#3 837572187#0 837572187#1 837573373#0 837573373#2 837573373#4 444272568#1 -gneE28 -gneE45"/>
    </vehicle>
    <vehicle id="97" depart="137.97">
        <route edges="-55290805 34243632#0 133875195#0 133875195#3 55290800 55290807 55290799 -133875223#19 -133875223#16 -133875223#10 gneE81 -133875223#4 -133875223#1 -133875223#0 -4357619 4340722#0 133875244#0 4338446#0 133875252#0 7995397#0 -141841564#11 -141841564#6 -141841564#2 -141841564#1 35391036#0 -444272568#0"/>
    </vehicle>
    <vehicle id="98" depart="139.39">
        <route edges="26312537#3 2743#0 -2743#1 2748#0 -37777243#4 37777243#0 198245314#1 55296262 4479201#0 4346053 55290810 55290800 55290807 55290799 -133875223#19 -133875223#16 -133875223#10 gneE81 -3403171#1"/>
    </vehicle>
    <vehicle id="99" depart="140.81">
        <route edges="746445107 35391036#0 -444272568#0 -837573373#3"/>