<?xml version="1.0" encoding="UTF-8"?>
<!-- generated on 2022-04-20 15:15:52.409973 by $Id$ UNKNOWN
  options: -r basicRoutes.rou.xml -d expandedCounts.xml -o sampledRoutes.rou.xml
-->
<routes xmlns:xsi="http://www.w3.org/2001/XMLSchema-instance" xsi:noNamespaceSchemaLocation="http://sumo.dlr.de/xsd/routes_file.xsd">
<!-- begin="0.0" end="3600.0" -->
    <vehicle id="0" depart="0.00">
        <route edges="5191097#2 141841564#7 39654987#0 133875252#3 4338448#0 48665005 115952095#0 -546225667#1 -884727976#2 -8769288#1 -167257#1 3120967#0 773250139#1 331545472#2 -210#1 -55290798#2 -209#3"/>
    </vehicle>
    <vehicle id="1" depart="0.32">
        <route edges="-546225667#1 -884727976#2 -8769288#1 -167257#1 3120967#0 773250139#1 331545472#2 3086259#0 3086261 3091989#1 -2524 30991997#1 1040747475 55296264#1 55290812#0 48207221 2742 52573120 55290813#0 -4279571 -175773133 683583893 115353253#0 115353253#1 48206750 -54401052#2 -54401052#1 -54401052#0 -54649790 373843895 48586336#1 133875263 38963969#0 38963969#1 133875178#0"/>
    </vehicle>
    <vehicle id="2" depart="0.64">
        <route edges="-133875223#16 -133875223#10 -133875223#4 -133875223#1 -133875223#0 -4357619 4340722#0 133875244#0 4338446#0 133875252#0 7995397#0 -141841564#11 -141841564#6 -141841564#2"/>
    </vehicle>
    <vehicle id="3" depart="0.97">
        <route edges="-133875223#0 -4357619 4340722#0 133875244#0 4338446#0 133875252#0 7995397#0 -141841564#11 -141841564#6 -141841564#2 -141841564#1 35391036#0 -444272568#0 -837573373#3 -837573373#1"/>
    </vehicle>
    <vehicle id="4" depart="1.29">
        <route edges="192674402#2 133875178#0 133875177 133875176 133875182#3 -48586336#2 240290973#0 -58295596#1 -192674701 -279357279#1 326284091 984881212 54401067 54401075 48586825"/>
    </vehicle>
    <vehicle id="5" depart="1.61">
        <route edges="404611919#0 gneE51 -gneE52 -133875245#3 -133875245#2 -133875236#3 -133875236#1 -133875229 -180869463#1 -133875249#2 -133875226#2 -133875226#0 -3381569#3 94820#0 133875252#0 133875252#1 133875252#3 4338448#0 48665005 115952095#0 -546225667#1 -884727976#2 -8769288#1 -167257#1 3120967#0 773250139#1 331545472#2 -210#1 -55290798#2 -209#3 -3292445#8 -3292445#2 gneE12 gneE13 3292444#0.4 3292451#0"/>
    </vehicle>
    <vehicle id="6" depart="1.93">
        <route edges="683648843 683648842#0 683648842#1 3024957 175773133 3024962 48207559 52030084#0 38964070#0 39348547#1 -3609801#3 2748#0 -37777243#4 37777243#0 198245314#1 55296262 197960551 55290809#0 3441738#0 55290801 -2527#2 4644987#0"/>
    </vehicle>
    <vehicle id="7" depart="2.26">
        <route edges="-133875226#0 -3381569#3 94820#0 133875252#0 133875252#1 133875252#3 4338448#0 48665005 115952095#0 -546225667#1 -884727976#2 -55602323#6 -55602323#1 -55602323#0 -55296249#2 -4644987#1 -4227221 3058212#0"/>
    </vehicle>
    <vehicle id="8" depart="2.58">
        <route edges="gneE53 -gneE52 -133875245#3 -133875245#2 -133875236#3 -133875236#1 746445108 746445107"/>
    </vehicle>
    <vehicle id="9" depart="2.90">
        <route edges="-55602323#1 -55602323#0 -55296249#2 -4644987#1 2527#0 4236439#0 4236439#1 3441067#0 55296262 4479201#0 4346053 3027099#0 505404870#0 351684045#0 133875181#0 351684503 3025859#0 3025859#5 3026118#0"/>
    </vehicle>
    <vehicle id="10" depart="3.22">
        <route edges="164650608 141841564#2 141841564#3 141841564#7 39654987#0 133875252#3 4338448#0 48665005 115952095#0 -546225667#1 -884727976#2 -55602323#6 -55602323#1 -55602323#0 -55296249#2 -4644987#1 2527#0 4236439#0 4236439#1 3441067#0 -203240967#2 -198245314#0 -26312537#4 26312537#3 2743#0"/>
    </vehicle>
    <vehicle id="11" depart="3.55">
        <route edges="-959553052#4 -959553052#2 -34784840#1 39183706 192668650#2 192668650#3 gneE13 3292444#0.4 899645883#2 899645883#5 74552388#2 7985210#0 7985210#1 32751328"/>
    </vehicle>
    <vehicle id="12" depart="3.87">
        <route edges="3086250 4321650 167283#0 -55602323#6 -55602323#1 -55602323#0 -55296249#2 -4644987#1 2527#0 4236439#0 4236439#1 3441067#0 55296262 4479201#0 4346053 3027099#0 505404870#0 351684045#0 133875181#0 351684503 3025859#0 -3026116#5"/>
    </vehicle>
    <vehicle id="13" depart="4.19">
        <route edges="gneE12 -192668650#4 -192668650#2 -192668650#1 192668649#1 192668647 959553052#0 959553052#3 192674402#0 192674402#2 133875178#0 133875177 133875176 133875182#3 -48586336#2 240290973#0 -58295596#1 -192674701 -279357279#1 326284091 984881212 54401067 54401075 48586825 -133875260#3 -133875262#1 -133875261#1 -3025859#8 -3025859#7 -3025859#5 -3025859#3 -351684503 -351685326 -55290805 34243632#0 133875195#0 133875195#3"/>
    </vehicle>
    <vehicle id="14" depart="4.51">
        <route edges="-444272568#2 4825792 164650608 141841564#2 141841564#3 141841564#7 39654987#0 133875252#3 4338448#0 48665005 115952095#0 -546225667#1 -884727976#2 -8769288#1 -167257#1 8769305 -4231711"/>
    </vehicle>
    <vehicle id="15" depart="4.83">
        <route edges="55290798#0 210#1 30992002 -3120967#1 8769305 309842640#0 39352131#0 39352131#2 39352131#3 837572187#0 837572187#1 837573373#0"/>
    </vehicle>
    <vehicle id="16" depart="5.16">
        <route edges="-4357619 4340722#0 133875244#0 4338446#0 133875252#0 133875252#1 133875252#3 4338448#0 48665005 115952095#0 -546225667#1 -884727976#2 -8769288#1 -167257#1 3120967#0 773250139#1 331545472#2 3086259#0 3086261 3091989#1 -2524 30991997#1 1040747475 55296264#1 55290812#0 48207221 2742 52573120 55290813#0 -4279571 -175773133 683583893 115353253#0 115353253#1 48206750"/>
    </vehicle>
    <vehicle id="17" depart="5.48">
        <route edges="2527#0 4236439#0 4236439#1 3441067#0 55296262 4479201#0 4346053 3027099#0 505404870#0 351684045#0 133875181#0 351684503 3025859#0 -3026116#5"/>
    </vehicle>
    <vehicle id="18" depart="5.80">
        <route edges="4338448#0 48665005 115952095#0 -546225667#1 -884727976#2 -8769288#1 -167257#1 3120967#0 773250139#1 331545472#2 3086259#0 3086261 3091989#1 -2524 30991997#1 1040747475 55296264#1 55290812#0 48207221 2742 52573120 55290813#0"/>
    </vehicle>
    <vehicle id="19" depart="6.12">
        <route edges="2524 39340468#0 39340468#1 4271799#1 -26637310#2 3126773 39333941#2 39333941#4 8769305 309842640#0 39352131#0 39352131#2 39352131#3 837572187#0 837572187#1 837573373#0 837573373#2"/>
    </vehicle>
    <vehicle id="20" depart="6.45">
        <route edges="48586825 -133875260#3 -133875262#1 -133875261#1 -3025859#8 -3025859#7 -3025859#5 -3025859#3 -351684503 -351685326 -55290805 34243632#0 133875195#0 133875195#3 55290800 55290807 55290799 984881209 37777462 55290809#0 3441738#0 55290801 -2527#2 -4227221 3058212#0 3058212#3 3609803#0"/>
    </vehicle>
    <vehicle id="21" depart="6.77">
        <route edges="414017617 683648842#0 683648842#1 3024957 175773133 3024962 48207559 52030084#0 2765 52573118#0 2755#0 52573119 -55290812#1 -2756#1 2757#0 2757#1 1025513686#0 1025513686#1 188924487#0 209#0 55290798#0 210#1 30992002 -3120967#1 8769305 309842640#0"/>
    </vehicle>
    <vehicle id="22" depart="7.09">
        <route edges="197960551 55290809#0 3441738#0 55290801 4236439#0 4236439#1 3441067#0 -203240967#2 -198245314#0 3609801#1"/>
    </vehicle>
    <vehicle id="23" depart="7.41">
        <route edges="-3025859#3 -351684503 -351685326 -55290805 34243632#0 133875195#0 133875195#3 55290800 55290807 55290799 -133875223#19 -133875223#16 -133875223#10 -133875223#4 -133875223#1 -133875223#0 -4357619 4340722#0 133875244#0 133875232#0 3381569#0 133875226#0 133875226#1 133875249#0 180869463#0 133875229 133875236#0 133875236#2 133875245#0 133875245#3"/>
    </vehicle>
    <vehicle id="24" depart="7.74">
        <route edges="133875252#0 7995397#0 -141841564#11 -5191097#3 -5191097#1"/>
    </vehicle>
    <vehicle id="25" depart="8.06">
        <route edges="3609801#1 -39348547#2 39348546#0 52573118#0 2755#0 52573119 -55290812#1 -2756#1 2757#0 2757#1 1025513686#0 1025513686#1 188924487#0 209#0 55290798#0 210#1 30992002 -3120967#1 8769305 309842640#0 39352131#0"/>
    </vehicle>
    <vehicle id="26" depart="8.38">
        <route edges="683648842#1 683648844 115353253#0 115353253#1 48206750 -54401052#2"/>
    </vehicle>
    <vehicle id="27" depart="8.70">
        <route edges="-546225667#1 -884727976#2 -8769288#1 -167257#1 3120967#0 773250139#1 331545472#2 3086259#0 3086261 3091989#1 -2524 30991997#1 1040747475 55296264#1 55290812#0 48207221 2742 52573120 55290813#0 -4279571 -175773133 683583893 115353253#0 115353253#1 48206750 -54401052#2 -54401052#1 -54401052#0 -54649790 373843895 48586336#1 133875263 38963969#0 38963969#1 133875178#0"/>
    </vehicle>
    <vehicle id="28" depart="9.02">
        <route edges="-133875245#2 -133875236#3 -133875236#1 746445108 746445107"/>
    </vehicle>
    <vehicle id="29" depart="9.35">
        <route edges="-4357619 4340722#0 133875244#0 4338446#0 133875252#0 133875252#1 133875252#3 4338448#0 48665005 115952095#0 -546225667#1 -884727976#2 -8769288#1 -167257#1 3120967#0 773250139#1 331545472#2 3086259#0 3086261 3091989#1 -2524 30991997#1 1040747475 55296264#1 55290812#0 48207221 2742 52573120 55290813#0 -4279571 -175773133 683583893 115353253#0 115353253#1 48206750"/>
    </vehicle>
    <vehicle id="30" depart="9.67">
        <route edges="2755#0 48207220 52573120 52030081 52030084#0 38964070#0 50842685#0 50842685#1 2745#0 192671933#0 3025839#0 -133875261#1 -3025859#8 -3025859#7 -3025859#5 -3025859#3 -351684503 -351685326 -55290805"/>
    </vehicle>
    <vehicle id="31" depart="9.99">
        <route edges="197960551 55290809#0 3441738#0 55290801 4236439#0 39333603"/>
    </vehicle>
    <vehicle id="32" depart="10.31">
        <route edges="52030081 52030084#0 2765 52573118#0 2755#0 52573119 -55290812#1 -2756#1 2757#0 2757#1 1025513686#0 1025513686#1 188924487#0 209#0 55290798#0 210#1 30992002 -3120967#1 8769305"/>
    </vehicle>
    <vehicle id="33" depart="10.64">
        <route edges="-837572187#0 -39352131#5 -39352131#2 -39352131#1 -3086257#1 -3086258 331545472#2 3086259#0 3086261 3091989#1 -2524 30991997#1 1040747475 55296264#1 55290812#0 48207221 2742 52573120 55290813#0 -4279571 -175773133 683583893 115353253#0 3024958#0 3024958#1"/>
    </vehicle>
    <vehicle id="34" depart="10.96">
        <route edges="141841564#2 141841564#3 141841564#7 39654987#0 133875252#3 4338448#0 48665005 115952095#0 -546225667#1 -884727976#2 -8769288#1 -167257#1 8769305 309842640#0 39352131#0 39352131#2"/>
    </vehicle>
    <vehicle id="35" depart="11.28">
        <route edges="55290798#0 210#1 30992002 -3120967#1 8769305 309842640#0 39352131#0 39352131#2 39352131#3 837572187#0 837572187#1 837573373#0"/>
    </vehicle>
    <vehicle id="36" depart="11.60">
        <route edges="899645883#2 899645883#5 74552388#2 7985210#0 7985210#1 32751328 1025513686#0 1025513686#1 188924487#0 209#0 55290798#0 210#1 30992002 -3120967#1 167257#0"/>
    </vehicle>
    <vehicle id="37" depart="11.92">
        <route edges="-133875223#1 -133875223#0 -4357619 4340722#0 133875244#0 4338446#0 133875252#0 133875252#1 133875252#3 4338448#0 48665005 115952095#0 -546225667#1 -884727976#2 -8769288#1 -167257#1 3120967#0 773250139#1 331545472#2 3086259#0 3086261 3091989#1 -2524 30991997#1 1040747475 2757#1 1025513686#0 1025513686#1 2761 48173166#0 -899656225#3"/>
    </vehicle>
    <vehicle id="38" depart="12.25">
        <route edges="-3025859#3 -351684503 -351685326 -55290805 34243632#0 133875195#0 133875195#3 55290800 55290807 55290799 -133875223#19 -133875223#16 -133875223#10 -133875223#4 -133875223#1 -133875223#0 -4357619 4340722#0 133875244#0 133875232#0 3381569#0 133875226#0 133875226#1 133875249#0 180869463#0 133875229 133875236#0 133875236#2 133875245#0 133875245#3"/>
    </vehicle>
    <vehicle id="39" depart="12.57">
        <route edges="-3292445#2 gneE12 gneE13 3292444#0.4 899645883#2 899645883#5 74552388#2 7985210#0 7985210#1 32751328 1025513686#0 1025513686#1 188924487#0 209#0 55290798#0 210#1 30992002 -3120967#1 167257#0 167257#2 -55602323#6 -55602323#1 -55602323#0 -55296249#2 -4644987#1 -4227221 3058212#0 197062472"/>
    </vehicle>
    <vehicle id="40" depart="12.89">
        <route edges="326284103 54401064 984881214 984881212 54401067 54401075 48586825 -133875260#3 -133875262#1 -133875261#1 -3025859#8 -3025859#7 -3025859#5 -3026116#5 -54516245#0"/>
    </vehicle>
    <vehicle id="41" depart="13.21">
        <route edges="-133875245#3 -133875245#2 -133875236#3 -133875236#1 -133875229 -180869463#1 -133875249#2 -133875226#2 -133875226#0 -3381569#3 94820#0 133875252#0 133875252#1 133875252#3 4338448#0 48665005 115952095#0 -546225667#1 -884727976#2 -55602323#6 -55602323#1 -55602323#0 -55296249#2 -4644987#1 2527#0"/>
    </vehicle>
    <vehicle id="42" depart="13.54">
        <route edges="gneE12 -192668650#4 -192668650#2 -192668650#1 192668649#1 192668647 959553052#0 959553052#3 192674402#0 192674402#2 133875178#0 133875177 133875176 133875182#3 -48586336#2 240290973#0 -58295596#1 -192674701 -279357279#1 326284091 984881212 54401067 54401075 48586825 -133875260#3 -133875262#1 -133875261#1 -3025859#8 -3025859#7 -3025859#5 -3025859#3 -351684503 -351685326 -55290805 34243632#0 133875195#0 133875195#3"/>
    </vehicle>
    <vehicle id="43" depart="13.86">
        <route edges="26312537#3 3609801#1 -39348547#2 39348546#0 52573118#0 2755#0 52573119 -55290812#1 -2756#1 2757#0 2757#1 1025513686#0 1025513686#1 188924487#0 209#0 55290798#0 210#1 30992002 -3120967#1 8769305 32751327 3086252#0 3086251 3086245#1 3086248#0"/>
    </vehicle>
    <vehicle id="44" depart="14.18">
        <route edges="-133875249#2 -133875226#2 -133875226#0 -3381569#3 94820#0 133875252#0 133875252#1 133875252#3 4338448#0 48665005 115952095#0 -546225667#1 -884727976#2 -55602323#6 -55602323#1 -55602323#0 -55296249#2 -4644987#1 -4227221 3058212#0 3058212#3 3609803#0 3609805#3"/>
    </vehicle>
    <vehicle id="45" depart="14.50">
        <route edges="133875252#0 7995397#0 -141841564#11 -5191097#3 -5191097#1"/>
    </vehicle>
    <vehicle id="46" depart="14.83">
        <route edges="133875177 133875176 133875182#3 -48586336#2 240290973#0 -58295596#1 -192674701 -279357279#1 326284091 984881212 54401067 54401075 48586825 -133875260#3 -133875262#1 -133875261#1 -3025859#8 -3025859#7 -3025859#5 -3025859#3 -351684503 -351685326 -55290805 34243632#0 133875195#0 133875195#3 55290800 55290807 55290799 -133875223#19 -133875223#16 -133875223#10 -133875223#4 -133875223#1 -133875223#0 -4357619 4340722#0 133875244#0 4338446#0 133875252#0 7995397#0 -141841564#11 -141841564#6 -141841564#2 -141841564#1 35391036#0 444272568#1 -gneE28 gneE33"/>
    </vehicle>
    <vehicle id="47" depart="15.15">
        <route edges="-3086247 -39352131#2 3086250 -3086252#1 -32751327 309842640#0 39352131#0 39352131#2 39352131#3 837572187#0 837572187#1 837573373#0 837573373#2 837573373#4 444272568#1 -gneE28 gneE33"/>
    </vehicle>
    <vehicle id="48" depart="15.47">
        <route edges="-4231711 -3086258 331545472#2 3086259#0 3086261 3091989#1 -2524 30991997#1 1040747475 55296264#1"/>
    </vehicle>
    <vehicle id="49" depart="15.79">
        <route edges="-55602323#1 -55602323#0 -55296249#2 -4644987#1 2527#0 4236439#0 4236439#1 3441067#0 55296262 4479201#0 4346053 3027099#0"/>
    </vehicle>
    <vehicle id="50" depart="16.11">
        <route edges="48586825 -133875260#3 -133875262#1 -133875261#1 -3025859#8 -3025859#7 -3025859#5 -3025859#3 -351684503 -351685326 -55290805 34243632#0 133875195#0 133875195#3 55290800 55290807 55290799 984881209 37777462 55290809#0 3441738#0 55290801 -2527#2 -4227221 3058212#0 3058212#3 3609803#0"/>
    </vehicle>
    <vehicle id="51" depart="16.44">
        <route edges="197960551 55290809#0 3441738#0 55290801 4236439#0 39333603"/>
    </vehicle>
    <vehicle id="52" depart="16.76">
        <route edges="431533372#0 2756#0 55290812#0 48207221 2742 52573120 55290813#0 -4279571 -175773133 683583893 115353253#0 115353253#1 48206750 -54401052#2 -54401052#1 -54401052#0 -54649790 373843895"/>
    </vehicle>
    <vehicle id="53" depart="17.08">
        <route edges="3441067#0 55296262 197960551 55290809#0 3441738#0 55290801 -2527#2 4644987#0 55296249#0"/>
    </vehicle>
    <vehicle id="54" depart="17.40">
        <route edges="133875252#1 133875252#3 4338448#0 48665005 115952095#0 -546225667#1 -884727976#2 -8769288#1 -167257#1 3120967#0 773250139#1 331545472#2 3086259#0 3086261 3091989#1 -2524 30991997#1 1040747475 55296264#1 55290812#0 48207221 2742 52573120 55290813#0 -4279571 -175773133 683583893 115353253#0 3024958#0"/>
    </vehicle>
    <vehicle id="55" depart="17.73">
        <route edges="55602323#0 55602323#1 55602323#3 -8769288#1 -167257#1 8769305 309842640#0"/>
    </vehicle>
    <vehicle id="56" depart="18.05">
        <route edges="3441067#0 55296262 197960551 55290809#0 3441738#0 55290801 -2527#2 4644987#0 55296249#0"/>
    </vehicle>
    <vehicle id="57" depart="18.37">
        <route edges="164650608 141841564#2 141841564#3 141841564#7 39654987#0 133875252#3 4338448#0 48665005 115952095#0 -546225667#1 -884727976#2 -55602323#6 -55602323#1 -55602323#0 -55296249#2 -4644987#1 2527#0 4236439#0 4236439#1 3441067#0 -203240967#2 -198245314#0 -26312537#4 26312537#3 2743#0"/>
    </vehicle>
    <vehicle id="58" depart="18.69">
        <route edges="-55602323#0 -55296249#2 -4644987#1 2527#0 4236439#0 4236439#1 3441067#0 55296262 4479201#0 4346053 3027099#0 505404870#0 351684045#0 133875181#0 351684503 3025859#0 3025859#5"/>
    </vehicle>
    <vehicle id="59" depart="19.02">
        <route edges="133875255 4338449#0 4357619 133875223#0 133875223#1"/>
    </vehicle>
    <vehicle id="60" depart="19.34">
        <route edges="54401064 192674702#0 279357279#1 192674701 58295596#0 -240290973#1 48586336#1 133875263 38963969#0 38963969#1 -192674402#2 -192674402#1 -959553052#4 -959553052#2 -34784840#1 39183706 192668650#2 192668650#3"/>
    </vehicle>
    <vehicle id="61" depart="19.66">
        <route edges="55290798#0 210#1 30992002 -3120967#1 8769305 309842640#0 39352131#0 39352131#2 39352131#3 837572187#0 837572187#1 837573373#0"/>
    </vehicle>
    <vehicle id="62" depart="19.98">
        <route edges="54401052#2 414017617 683648842#0 683648842#1 3024957 175773133 3024962 48207559 52030084#0 38964070#0 39348547#1 -3609801#3 2748#0 -37777243#4 37777243#0 198245314#1 55296262 197960551 55290809#0 3441738#0 55290801 -2527#2 4644987#0 55296249#0 55602323#0 55602323#1 4231695#0"/>
    </vehicle>
    <vehicle id="63" depart="20.30">
        <route edges="4321650 167283#0 884727976#0 546225667#0 115952099#2 -30906#3 38619223#0 133875255 133875259#0 133875244#0 4338446#0 133875252#0 7995397#0 -141841564#11 -141841564#6 -141841564#2 -141841564#1"/>
    </vehicle>
    <vehicle id="64" depart="20.63">
        <route edges="4338448#0 48665005 115952095#0 -546225667#1 -884727976#2 -8769288#1 -167257#1 3120967#0 773250139#1 331545472#2 3086259#0 3086261 3091989#1 -2524 30991997#1 1040747475 55296264#1 55290812#0 48207221 2742 52573120 55290813#0"/>
    </vehicle>
    <vehicle id="65" depart="20.95">
        <route edges="3025859#5 3025859#6 3025859#8 133875261#0 133875262#0 133875260#0 48586818 984881213 54401061 54401064 192674702#0 279357279#1 192674701 58295596#0 -240290973#1 48586336#1 133875263 38963969#0 38963969#1 -192674402#2 -192674402#1 -959553052#4 -959553052#2 -3024965#8"/>
    </vehicle>
    <vehicle id="66" depart="21.27">
        <route edges="4321650 167283#0 -8769288#1 -167257#1 3120967#0 773250139#1 331545472#2 3086259#0 3086261 3091989#1 -2524 30991997#1 1040747475 55296264#1"/>
    </vehicle>
    <vehicle id="67" depart="21.59">
        <route edges="-133875223#1 -133875223#0 -4357619 4340722#0 133875244#0 4338446#0 133875252#0 133875252#1 133875252#3 4338448#0 48665005 115952095#0 -546225667#1 -884727976#2 -8769288#1 -167257#1 3120967#0 773250139#1 331545472#2 3086259#0 3086261 3091989#1 -2524 30991997#1 1040747475 2757#1 1025513686#0 1025513686#1 2761 48173166#0 -899656225#3"/>
    </vehicle>
    <vehicle id="68" depart="21.92">
        <route edges="-167257#1 3120967#0 773250139#1 331545472#2 3086259#0 3086261 3091989#1 39340468#0 39340468#1 4271799#1 8769450"/>
    </vehicle>
    <vehicle id="69" depart="22.24">
        <route edges="-133875245#2 -133875236#3 -133875236#1 -133875229 -180869463#1 -133875249#2 -133875226#2 -133875226#0 -3381569#3 94820#0 133875252#0 133875252#1 133875252#3 4338448#0 48665005 115952095#0 -546225667#1 -884727976#2 -8769288#1 -167257#1 3120967#0 773250139#1 331545472#2 3086259#0 3086261 3091989#1 -2524 30991997#1 1040747475 55296264#1 55290812#0 48207221 2742 52573120 55290813#0 -4279571 3024966#0 3024965#0 3024964"/>
    </vehicle>
    <vehicle id="70" depart="22.56">
        <route edges="4236439#1 3441067#0 55296262 197960551 55290809#0 3441738#0 55290801 -2527#2 4644987#0 55296249#0 26753071 -39264086"/>
    </vehicle>
    <vehicle id="71" depart="22.88">
        <route edges="-4357619 4340722#0 133875244#0 4338446#0 133875252#0 133875252#1 133875252#3 4338448#0 48665005 115952095#0 -546225667#1 -884727976#2 -8769288#1 -167257#1 3120967#0 773250139#1 331545472#2 3086259#0 3086261 3091989#1 -2524 30991997#1 1040747475 55296264#1 55290812#0 48207221 2742 52573120 55290813#0 -4279571 -175773133 683583893 115353253#0 115353253#1 48206750"/>
    </vehicle>
    <vehicle id="72" depart="23.21">
        <route edges="197960551 55290809#0 3441738#0 55290801 4236439#0 39333603"/>
    </vehicle>
    <vehicle id="73" depart="23.53">
        <route edges="-133875249#2 -133875226#2 -133875226#0 -3381569#3 94820#0 133875252#0 133875252#1 133875252#3 4338448#0 48665005 115952095#0 -546225667#1 -884727976#2 -55602323#6 -55602323#1 -55602323#0 -55296249#2 -4644987#1 -4227221 3058212#0 3058212#3 3609803#0 3609805#3"/>
    </vehicle>
    <vehicle id="74" depart="23.85">
        <route edges="-4231711 -3086258 331545472#2 3086259#0 3086261 3091989#1 -2524 30991997#1 1040747475 55296264#1"/>
    </vehicle>
    <vehicle id="75" depart="24.17">
        <route edges="133875223#3 133875223#6 133875223#11 133875223#17 984881209 55290796 4346053 3027099#0 505404870#0"/>
    </vehicle>
    <vehicle id="76" depart="24.49">
        <route edges="55290799 984881209 55290796 4346053 3027099#0 505404870#0 351684045#0 133875181#0 351684503 3025859#0 3025859#5 3025859#6 3025859#8 133875261#0 133875262#0 133875260#0 48586818 984881213 54401061 54401064 984881214 984881212 54401067 54401075"/>
    </vehicle>
    <vehicle id="77" depart="24.82">
        <route edges="4825792 164650608 141841564#2 141841564#3 141841564#7 39654987#0 133875252#3 4338448#0 48665005 115952095#0 -546225667#1 -884727976#2 -8769288#1 -167257#1 3120967#0 773250139#1"/>
    </vehicle>
    <vehicle id="78" depart="25.14">
        <route edges="-2960931#0 326284103 54401064 984881214 984881212 54401067 54401075 48586825 -133875260#3 -133875262#1 -133875261#1 -3025859#8 -3025859#7 -3025859#5 -3025859#3 -351684503 -351685326 -55290805 34243632#0 133875195#0 133875195#3 55290800 55290807 55290799 -133875223#19 -133875223#16 -133875223#10 -133875223#4 -133875223#1 -133875223#0 -4357619 4340722#0 133875244#0 4338446#0 133875252#0 133875252#1 133875252#3 133875256#0"/>
    </vehicle>
    <vehicle id="79" depart="25.46">
        <route edges="2527#0 4236439#0 4236439#1 3441067#0 55296262 4479201#0 4346053 3027099#0 505404870#0 351684045#0 133875181#0 351684503 3025859#0 -3026116#5"/>
    </vehicle>
    <vehicle id="80" depart="25.78">
        <route edges="55290799 984881209 55290796 4346053 3027099#0 505404870#0 351684045#0 133875181#0 351684503 3025859#0 3025859#5 3025859#6 3025859#8 133875261#0 133875262#0 133875260#0 48586818 984881213 54401061 54401064 984881214 984881212 54401067 54401075"/>
    </vehicle>
    <vehicle id="81" depart="26.11">
        <route edges="-133875223#1 -133875223#0 -4357619 4340722#0 133875244#0 4338446#0 133875252#0 133875252#1 133875252#3 4338448#0 48665005 115952095#0 -546225667#1 -884727976#2 -8769288#1 -167257#1 3120967#0 773250139#1 331545472#2 3086259#0 3086261 3091989#1 -2524 30991997#1 1040747475 2757#1 1025513686#0 1025513686#1 2761 48173166#0 -899656225#3"/>
    </vehicle>
    <vehicle id="82" depart="26.43">
        <route edges="26312537#3 3609801#1 -39348547#2 39348546#0 52573118#0 2755#0 52573119 -55290812#1 -2756#1 2757#0 2757#1 1025513686#0 1025513686#1 188924487#0 209#0 55290798#0 210#1 30992002 -3120967#1 8769305 32751327 3086252#0 3086251 3086245#1 3086248#0"/>
    </vehicle>
    <vehicle id="83" depart="26.75">
        <route edges="-167257#1 3120967#0 773250139#1 331545472#2 3086259#0 3086261 3091989#1 39340468#0 39340468#1 4271799#1 8769450"/>
    </vehicle>
    <vehicle id="84" depart="27.07">
        <route edges="3086250 4321650 167283#0 -55602323#6 -55602323#1 -55602323#0 -55296249#2 -4644987#1 2527#0 4236439#0 4236439#1 3441067#0 55296262 4479201#0 4346053 3027099#0 505404870#0 351684045#0 133875181#0 351684503 3025859#0 -3026116#5"/>
    </vehicle>
    <vehicle id="85" depart="27.39">
        <route edges="-133875249#2 -133875226#2 -133875226#0 -3381569#3 94820#0 133875252#0 133875252#1 133875252#3 4338448#0 48665005 115952095#0 -546225667#1 -884727976#2 -55602323#6 -57962409"/>
    </vehicle>
    <vehicle id="86" depart="27.72">
        <route edges="4338448#0 48665005 115952095#0 -546225667#1 -884727976#2 -8769288#1 -167257#1 3120967#0 773250139#1 331545472#2 3086259#0 3086261 3091989#1 -2524 30991997#1 1040747475 55296264#1 55290812#0 48207221 2742 52573120 55290813#0"/>
    </vehicle>
    <vehicle id="87" depart="28.04">
        <route edges="164650608 141841564#2 141841564#3 141841564#7 39654987#0 133875252#3 4338448#0 48665005 115952095#0 -546225667#1 -884727976#2 -55602323#6 -55602323#1 -55602323#0 -55296249#2 -4644987#1 2527#0 4236439#0 4236439#1 3441067#0 -203240967#2 -198245314#0 -26312537#4 26312537#3 2743#0"/>
    </vehicle>
    <vehicle id="88" depart="28.36">
        <route edges="-55602323#1 -55602323#0 -55296249#2 -4644987#1 2527#0 4236439#0 4236439#1 3441067#0 55296262 4479201#0 4346053 3027099#0 505404870#0 351684045#0 133875181#0 351684503 3025859#0 3025859#5 3026118#0"/>
    </vehicle>
    <vehicle id="89" depart="28.68">
        <route edges="-4231695#2 55602323#3 -8769288#1 -167257#1 3120967#0 773250139#1 331545472#2 3086259#0 3086261 3091989#1 -2524 30991997#1 1040747475 55296264#1 55290812#0 48207221 2742 52573120 55290813#0 -4279571 -175773133 683583893 115353253#0 115353253#1 683648843 683648842#0 683648842#1"/>
    </vehicle>
    <vehicle id="90" depart="29.01">
        <route edges="-2756#1 2757#0 2757#1 1025513686#0 1025513686#1 188924487#0 209#0 55290798#0 210#1 30992002 -3120967#1 167257#0 167257#2 -55602323#6"/>
    </vehicle>
    <vehicle id="91" depart="29.33">
        <route edges="-444272568#2 4825792 164650608 141841564#2 141841564#3 141841564#7 39654987#0 133875252#3 4338448#0 48665005 115952095#0 -546225667#1 -884727976#2 -8769288#1 -167257#1 3120967#0 773250139#1 331545472#2 3086259#0 3086261 3091989#1 -2524 30991997#1 1040747475 2757#1 1025513686#0 1025513686#1 2761 188924488#0 7985210#1"/>
    </vehicle>
    <vehicle id="92" depart="29.65">
        <route edges="133875177 133875176 133875182#3 -48586336#2 240290973#0 -58295596#1 -192674701 -279357279#1 326284091 984881212 54401067 54401075 48586825 -133875260#3 -133875262#1 -133875261#1 -3025859#8 -3025859#7 -3025859#5 -3025859#3 -351684503 -351685326 -55290805 34243632#0 133875195#0 133875195#3 55290800 55290807 55290799 -133875223#19 -133875223#16 -133875223#10 -133875223#4 -133875223#1 -133875223#0 -4357619 4340722#0 133875244#0 4338446#0 133875252#0 7995397#0 -141841564#11 -141841564#6 -141841564#2 -141841564#1 35391036#0 444272568#1 -gneE28 gneE33"/>
    </vehicle>
    <vehicle id="93" depart="29.97">
        <route edges="-55290805 34243632#0 133875195#0 133875195#3 55290800 55290807 55290799 -133875223#19 -133875223#16 -133875223#10 -133875223#4 -133875223#1 -133875223#0 -4357619 4340722#0 133875244#0 133875232#0 3381569#0 133875226#0 133875226#1"/>
    </vehicle>
    <vehicle id="94" depart="30.30">
        <route edges="133875223#3 133875223#6 133875223#11 133875223#17 984881209 55290796 4346053 3027099#0 505404870#0"/>
    </vehicle>
    <vehicle id="95" depart="30.62">
        <route edges="4338448#0 48665005 115952095#0 -546225667#1 -884727976#2 -8769288#1 -167257#1 3120967#0 773250139#1 331545472#2 3086259#0 3086261 3091989#1 -2524 30991997#1 1040747475 55296264#1 55290812#0 48207221 2742 52573120 55290813#0"/>
    </vehicle>
    <vehicle id="96" depart="30.94">
        <route edges="164650608 141841564#2 141841564#3 141841564#7 39654987#0 133875252#3 4338448#0 48665005 115952095#0 -546225667#1 -884727976#2 -55602323#6 -55602323#1 -55602323#0 -55296249#2 -4644987#1 2527#0 4236439#0 4236439#1 3441067#0 -203240967#2 -198245314#0 -26312537#4 26312537#3 2743#0"/>
    </vehicle>
    <vehicle id="97" depart="31.26">
        <route edges="48586825 -133875260#3 -133875262#1 -133875261#1 -3025859#8 -3025859#7 -3025859#5 -3025859#3 -351684503 -351685326 -55290805 34243632#0 133875195#0 133875195#3 55290800 55290807 55290799 984881209 37777462 55290809#0 3441738#0 55290801 -2527#2 -4227221 3058212#0 3058212#3 3609803#0"/>
    </vehicle>
    <vehicle id="98" depart="31.58">
        <route edges="gneE51 -gneE52 -133875245#3 -133875245#2 -133875236#3 -133875236#1 -133875229 -180869463#1 -133875249#2 -133875226#2 -133875226#0 -3381569#3 94820#0 133875252#0 133875252#1 133875252#3 4338448#0 48665005 115952095#0 -546225667#1 -884727976#2 -8769288#1 -167257#1 8769305 32751327 309843878"/>
    </vehicle>
    <vehicle id="99" depart="31.91">
        <route edges="984881214 984881212 54401067 54401075 48586825 -133875260#3 -133875262#1 -3025839#7 -447465369"/>
    </vehicle>
    <vehicle id="100" depart="32.23">
        <route edges="4236439#0 4236439#1 3441067#0 -203240967#2 -198245314#0 3609801#1 -39348547#2 50842685#0"/>
    </vehicle>
    <vehicle id="101" depart="32.55">