<?xml version="1.0" encoding="UTF-8"?>

<!-- generated on 2022-05-05 16:37:53 by Eclipse SUMO duarouter Version 1.10.0
<configuration xmlns:xsi="http://www.w3.org/2001/XMLSchema-instance" xsi:noNamespaceSchemaLocation="http://sumo.dlr.de/xsd/duarouterConfiguration.xsd">

    <input>
        <net-file value="bath.net.xml"/>
        <route-files value="ltn/ltnTrips.trips.xml"/>
        <junction-taz value="true"/>
    </input>

    <output>
        <output-file value="ltn/ltnRoutes.rou.xml"/>
        <alternatives-output value="ltn/ltnRoutes.rou.alt.xml"/>
    </output>

</configuration>
-->

<routes xmlns:xsi="http://www.w3.org/2001/XMLSchema-instance" xsi:noNamespaceSchemaLocation="http://sumo.dlr.de/xsd/routes_file.xsd">
    <vehicle id="0" depart="0.00">
        <route edges="48207221 2742 52573120 52030081 52030084#0 38964070#0 39348547#1 -3609801#3 2743#0"/>
    </vehicle>
    <vehicle id="1" depart="0.80">
        <route edges="-351684503 -351685326 -55290805 34243632#0 133875195#0 133875195#3 55290800 55290807 55290799 984881209 37777462 55290809#0 3441738#0 55290801 -2527#2 4644987#0 55296249#0 gneE91 -57962409"/>
    </vehicle>
    <vehicle id="2" depart="1.59">
        <route edges="-192674402#1 -959553052#4 -959553052#2 -34784840#1 39183706"/>
    </vehicle>
    <vehicle id="3" depart="2.39">
        <route edges="133875223#11 133875223#17 984881209 55290796 4346053 3027099#0 505404870#0 351684045#0 133875181#0 351684503"/>
    </vehicle>
    <vehicle id="4" depart="3.18">
        <route edges="115353253#1 683648843 683648842#0 683648842#1 3024957 175773133 3024962 48207559 52030084#0 38964070#0 39348547#1 -3609801#3 2748#0 198245314#1 55296262 4479201#0 4346053 55290810 55290800 55290807"/>
    </vehicle>
    <vehicle id="5" depart="3.98">
        <route edges="4479201#0 4346053 3027099#0 505404870#0 351684045#0 133875181#0 351684503 3025859#0 3025859#5 3025859#6 3025859#8"/>
    </vehicle>
    <vehicle id="6" depart="4.77">
        <route edges="39352131#0 39352131#2 39352131#3 837572187#0 837572187#1 837573373#0 837573373#2 837573373#4 444272568#1 -gneE28 -gneE45 -gneE43 -gneE26"/>
    </vehicle>
    <vehicle id="7" depart="5.57">
        <route edges="gneE91 55602323#3 55602323#3.91 -8769288#1 3120967#0 773250139#1 331545472#2 3086259#0 3086261 3091989#1 -2524 30991997#1 1040747475 55296264#1"/>
    </vehicle>
    <vehicle id="8" depart="6.36">
        <route edges="326284091 984881212 54401067 gneE73 gneE74 gneE75 48586837 3024770 54401052#2 414017617 683648842#0 683648842#1 3024957 175773133 3024962 48207559 52030084#0 2765 52573118#0 2755#0 52573119 48207221"/>
    </vehicle>
    <vehicle id="9" depart="7.16">
        <route edges="gneE91 55602323#3 55602323#3.91 -8769288#1 3120967#0 773250139#1 331545472#2 3086259#0 3086261 3091989#1 -2524 30991997#1 1040747475 55296264#1"/>
    </vehicle>
    <vehicle id="10" depart="7.96">
        <route edges="115353253#1 48206750"/>
    </vehicle>
    <vehicle id="11" depart="8.75">
        <route edges="4045612#1 3091989#1 39340468#0 39340468#1 4271799#1 -26637310#2 3126773 39333941#2 39333941#4 8769305 309842640#0 39352131#0 39352131#2 39352131#3 837572187#0 837572187#1 837573373#0 837573373#2 837573373#4 444272568#1 3098972#0"/>
    </vehicle>
    <vehicle id="12" depart="9.55">
        <route edges="39645355#0"/>
    </vehicle>
    <vehicle id="13" depart="10.34">
        <route edges="133875255 133875259#0 133875244#0 4338446#0 133875252#0 133875252#3 4338448#0 48665005 115952095#0 -546225667#1 -8769288#1"/>
    </vehicle>
    <vehicle id="14" depart="11.14">
        <route edges="209#0 55290798#0 210#1 30992002 -3120967#1 167257#2 -55602323#6 -gneE91 -55296249#2 -4644987#1 2527#0 4236439#0 4236439#1 3441067#0 55296262"/>
    </vehicle>
    <vehicle id="15" depart="11.93">
        <route edges="133875260#0 48586818 gneE74 54401064 192674702#0 279357279#1 192674701 58295596#0 -240290973#1 48586336#1 -gneE90"/>
    </vehicle>
    <vehicle id="16" depart="12.73">
        <route edges="167160#0 gneE91 55602323#3 55602323#3.91 -8769288#1 3120967#0 773250139#1 331545472#2 3086259#0 3086261 3091989#1 -2524 30991997#1 1040747475 55296264#1"/>
    </vehicle>
    <vehicle id="17" depart="13.52">
        <route edges="-351684503 -351685326 -55290805 34243632#0 133875195#0 133875195#3 55290800 55290807 55290799 984881209 37777462 55290809#0 3441738#0 55290801 -2527#2 4644987#0 55296249#0 gneE91 -57962409"/>
    </vehicle>
    <vehicle id="18" depart="14.32">
        <route edges="-959553052#2 -34784840#1 39183706 192668650#2 192668650#3 gneE13 gneE11 3292445#0.4 3292445#3 -127654225#19"/>
    </vehicle>
    <vehicle id="19" depart="15.12">
        <route edges="2748#0 198245314#1 55296262 197960551 55290809#0 3441738#0 55290801 -2527#2 4644987#0 55296249#0"/>
    </vehicle>
    <vehicle id="20" depart="15.91">
        <route edges="2757#0 2757#1 1025513686#0 1025513686#1 188924487#0 209#0 55290798#0 210#1 30992002 -3120967#1 8769305 309842640#0"/>
    </vehicle>
    <vehicle id="21" depart="16.71">
        <route edges="-3086257#1 -3086258 331545472#2 3086259#0 3086261 3091989#1 -2524 30991997#1 1040747475 55296264#1"/>
    </vehicle>
    <vehicle id="22" depart="17.50">
        <route edges="48207221 2742 52573120 52030081 52030084#0 38964070#0 50842685#0 50842685#1 2745#0 192671933#0 3025839#0 133875262#0"/>
    </vehicle>
    <vehicle id="23" depart="18.30">
        <route edges="2742 52573120 52030081 52030084#0 38964070#0 50842685#0 50842685#1"/>
    </vehicle>
    <vehicle id="24" depart="19.09">
        <route edges="133875260#0 48586818 gneE74 54401064 192674702#0 279357279#1 192674701 58295596#0 -240290973#1"/>
    </vehicle>
    <vehicle id="25" depart="19.89">
        <route edges="180869463#0 133875229 133875236#0 133875236#2 133875245#0 133875245#3 gneE52 gneE52.55 -gneE51 -404611919#1 gneE25 gneE26 gneE43 gneE45 gneE28 -444272568#2 -444272568#0"/>
    </vehicle>
    <vehicle id="26" depart="20.69">
        <route edges="48586336#1 -192674402#2 -192674402#1 -959553052#4 -959553052#2 -34784840#1 39183706 192668650#2 192668650#3 gneE13 gneE11 3292445#0.4 3292445#3"/>
    </vehicle>
    <vehicle id="27" depart="21.48">
        <route edges="198245314#1 55296262 4479201#0 4346053 55290810 55290800 3027057"/>
    </vehicle>
    <vehicle id="28" depart="22.28">
        <route edges="-899645883#1 gneE11 3292445#0.4 3292445#3 209#0 55290798#0 210#1 30992002 -3120967#1 8769305 309842640#0 39352131#0 39352131#2 39352131#3 837572187#0 837572187#1 837573373#0 837573373#2 837573373#4 444272568#1 3098972#0"/>
    </vehicle>
    <vehicle id="29" depart="23.07">
        <route edges="54401067 gneE72 -133875260#3 -133875262#1 -133875261#1 -3025859#8 -3025859#7 -3025859#5 -3025859#3 -351684503 -351685326 -55290805 34243632#0 133875195#0 133875195#3 55290800 55290807 55290799 -133875223#19 -133875223#16 -133875223#10 gneE81 -133875223#4 -133875223#1 -133875223#0 -4357619 4340722#0 133875244#0 133875232#0 3381569#0 133875226#0 133875226#1 133875249#0 180869463#0 133875229 133875236#0 133875236#2 133875245#0 133875245#3 gneE52 gneE52.55 -gneE51 -404611919#1"/>
    </vehicle>
    <vehicle id="30" depart="23.87">
        <route edges="-2756#1 2757#0 2757#1 1025513686#0 1025513686#1 188924487#0 209#0 55290798#0 210#1"/>
    </vehicle>
    <vehicle id="31" depart="24.66">
        <route edges="-279357279#1 326284091 984881212 54401067 gneE72 -133875260#3 -133875262#1 -133875261#1 -3025859#8 -3025859#7 -3025859#5 -3025859#3 -351684503 -351685326 -55290805 34243632#0 133875195#0 133875195#3 55290800"/>
    </vehicle>
    <vehicle id="32" depart="25.46">
        <route edges="-279357279#1 326284091 984881212 54401067 gneE72 -133875260#3 -133875262#1 -133875261#1 -3025859#8 -3025859#7 -3025859#5 -3025859#3 -351684503 -351685326 -55290805 34243632#0 133875195#0 133875195#3 55290800 55290807 55290799 984881209 37777462 55290809#0 3441738#0 55290801 -2527#2 4644987#0 55296249#0 gneE91 4231695#0 4231695#3 4231696#1"/>
    </vehicle>
    <vehicle id="33" depart="26.25">
        <route edges="115952099#2 -30906#3 38619223#0 133875255 4338449#0 4357619 133875223#0 133875223#1 133875223#3 gneE82 133875223#6 133875223#11 133875223#17 984881209 37777462 55290809#0 3441738#0 55290801 4236439#0 4236439#1 3441067#0 -203240967#2"/>
    </vehicle>
    <vehicle id="34" depart="27.05">
        <route edges="-32751327 309842640#0 39352131#0 39352131#2 39352131#3 837572187#0 837572187#1 837573373#0 837573373#2 837573373#4 444272568#1 -gneE28 gneE33"/>
    </vehicle>
    <vehicle id="35" depart="27.85">
        <route edges="-3026118#5 3025859#6 3025859#8 133875261#0 133875262#0 133875260#0 48586818 gneE74 54401064 192674702#0 279357279#1 192674701 58295596#0 -240290973#1 48586336#1 -192674402#2 -192674402#1 -959553052#4 -959553052#2 -34784840#1 39183706 192668650#2 192668650#3 gneE13 gneE11 3292445#0.4"/>
    </vehicle>
    <vehicle id="36" depart="28.64">
        <route edges="198245314#1 55296262 4479201#0 4346053 3027099#0 505404870#0"/>
    </vehicle>
    <vehicle id="37" depart="29.44">
        <route edges="-192668650#4 -192668650#2 -192668650#1 192668649#1 192668647 959553052#0 959553052#3 192674402#0 192674402#2 -48586336#2 240290973#0 48586337 54649790"/>
    </vehicle>
    <vehicle id="38" depart="30.23">
        <route edges="3292445#3 209#0 55290798#0 210#1 30992002 -3120967#1 167257#2 -55602323#6 -gneE91 -55296249#2 -4644987#1 2527#0 4236439#0 4236439#1 3441067#0 55296262 4479201#0"/>
    </vehicle>
    <vehicle id="39" depart="31.03">
        <route edges="74552388#2 7985210#0 7985210#1 431533372#0 2756#0 55290812#0 48207221 2742 52573120 55290813#0 -4279571 3024966#0"/>
    </vehicle>
    <vehicle id="40" depart="31.82">
        <route edges="351684045#0 133875181#0 351684503 3025859#0 3025859#5 3025859#6 3025859#8 133875261#0"/>
    </vehicle>
    <vehicle id="41" depart="32.62">
        <route edges="-180869463#1 -133875249#2 -133875226#2 -133875226#0 -3381569#3 94820#0 133875252#0 133875252#3 4338448#0 48665005 115952095#0 -546225667#1 -8769288#1 8769305 32751327 3086252#0 3086251"/>
    </vehicle>
    <vehicle id="42" depart="33.41">
        <route edges="3441067#0 55296262 4479201#0 4346053 55290810 55290800 55290807 55290799 -133875223#19 -133875223#16 -133875223#10 gneE81 -133875223#4 -133875223#1 -133875223#0 -4357619 4340722#0 133875244#0 133875232#0 3381569#0 133875226#0 940770422#0 553586920#0"/>
    </vehicle>
    <vehicle id="43" depart="34.21">
        <route edges="48207221 2742 52573120 52030081 52030084#0 38964070#0 39348547#1 -3609801#3 2743#0"/>
    </vehicle>
    <vehicle id="44" depart="35.01">
        <route edges="3441738#0 55290801 -2527#2 4644987#0 55296249#0 gneE91 55602323#3 55602323#3.91 -8769288#1 8769305 309842640#0 39352131#0 39352131#2 39352131#3 837572187#0 3600469#0"/>
    </vehicle>
    <vehicle id="45" depart="35.80">
        <route edges="-180869463#1 -133875249#2 -133875226#2 -133875226#0 -3381569#3 94820#0 133875252#0 133875252#3 4338448#0 48665005 115952095#0 -546225667#1 -8769288#1 8769305 32751327 3086252#0 3086251"/>
    </vehicle>
    <vehicle id="46" depart="36.60">
        <route edges="48207221 2742 52573120 52030081 52030084#0 38964070#0 50842685#0 50842685#1 2745#0 192671933#0 3025839#0 133875262#0"/>
    </vehicle>
    <vehicle id="47" depart="37.39">
        <route edges="984881212 54401067 gneE72 -133875260#3 -133875262#1 -133875261#1 -3025859#8 -3025859#7 -3025859#5"/>
    </vehicle>
    <vehicle id="48" depart="38.19">
        <route edges="55290810 55290800 55290807 55290799 -133875223#19 -133875223#16 -133875223#10 gneE81 -133875223#4 -133875223#1 -133875223#0 -4357619 4340722#0 133875244#0 133875232#0 3381569#0 133875226#0 133875226#1 133875249#0 180869463#0 133875229 133875236#0 133875236#2 133875245#0 133875245#3 gneE52 gneE52.55 -gneE51 -404611919#1 gneE25"/>
    </vehicle>
    <vehicle id="49" depart="38.98">
        <route edges="55602323#3.91 -8769288#1 3120967#0 773250139#1 331545472#2 -210#1 -55290798#2 -209#3 -3292445#8 -3292445#2 gneE12 -192668650#4 -192668650#2 -192668650#1 192668649#1"/>
    </vehicle>
    <vehicle id="50" depart="39.78">
        <route edges="180869463#0 133875229 133875236#0 133875236#2 133875245#0 133875245#3 gneE52 gneE52.55 -gneE51 -404611919#1 gneE25 gneE26 gneE43 gneE45 gneE28 -444272568#2 -444272568#0"/>
    </vehicle>
    <vehicle id="51" depart="40.57">
        <route edges="133875249#0 180869463#0 133875229 133875236#0 133875236#2 133875245#0 133875245#3 gneE52 gneE52.55 -gneE51 -404611919#1 gneE25 gneE26 gneE43 gneE45 gneE28 -444272568#2 -444272568#0 39645355#0"/>
    </vehicle>
    <vehicle id="52" depart="41.37">
        <route edges="48207221 2742 52573120 52030081 52030084#0 38964070#0 50842685#0 50842685#1 2745#0 192671933#0 3025839#0 -133875261#1 -3025859#8 -3025859#7 -3025859#5 -3026116#5 -3026116#2 -40495054"/>
    </vehicle>
    <vehicle id="53" depart="42.17">
        <route edges="55602323#3.91 -8769288#1 3120967#0 773250139#1 331545472#2 -210#1 -55290798#2 -209#3 -3292445#8 -3292445#2 gneE12 -192668650#4 -192668650#2 -192668650#1 192668649#1"/>
    </vehicle>
    <vehicle id="54" depart="42.96">
        <route edges="133875195#0 133875195#3 55290800 55290807 55290799 984881209 37777462 55290809#0 3441738#0 55290801"/>
    </vehicle>
    <vehicle id="55" depart="43.76">
        <route edges="-351684503 -351685326 -55290805 34243632#0 133875195#0 133875195#3 55290800 55290807 55290799"/>
    </vehicle>
    <vehicle id="56" depart="44.55">
        <route edges="3026120 -351684503 -351685326 -55290805 34243632#0 133875195#0 133875195#3 55290800 55290807 55290799 984881209 37777462"/>
    </vehicle>
    <vehicle id="57" depart="45.35">
        <route edges="3441067#0 55296262 4479201#0 4346053 55290810 55290800 55290807 55290799 -133875223#19 -133875223#16 -133875223#10 gneE81 -133875223#4 -133875223#1 -133875223#0 -4357619"/>
    </vehicle>
    <vehicle id="58" depart="46.14">
        <route edges="-26637310#2 3126773 39333941#2 127632770#0 167257#2 884727976#0"/>
    </vehicle>
    <vehicle id="59" depart="46.94">
        <route edges="39352131#0 3086250 4321650 167283#0 167283#0.164 -55602323#6 -gneE91"/>
    </vehicle>
    <vehicle id="60" depart="47.73">
        <route edges="55296249#0"/>
    </vehicle>
    <vehicle id="61" depart="48.53">
        <route edges="837573373#4 444272568#1 -gneE28 -gneE45 -gneE43 -gneE26 -gneE25 404611919#0 gneE51 -gneE52 -133875245#3"/>
    </vehicle>
    <vehicle id="62" depart="49.33">
        <route edges="-34784840#1 39183706 192668650#2 192668650#3 gneE13 gneE11 3292445#0.4 3292445#3 209#0 55290798#0 210#1 30992002 -3120967#1 8769305 309842640#0"/>
    </vehicle>
    <vehicle id="63" depart="50.12">
        <route edges="837573373#4 444272568#1 -gneE28 -gneE45 -gneE43 -gneE26 -gneE25 404611919#0 gneE51 -gneE52 -133875245#3 -133875245#2 -133875236#3 -133875236#1 -133875229 -180869463#1 -133875249#2 -133875226#2 -133875226#0 -3381569#3 94820#0 133875252#0 133875252#3 133875256#0 133875255 4338449#0 4357619 133875223#0 133875223#1 133875223#3 gneE82 133875223#6 133875223#11 133875223#17 984881209 37777462 55290809#0 3441738#0"/>
    </vehicle>
    <vehicle id="64" depart="50.92">
        <route edges="55290800 55290807 55290799 984881209 55290796 4346053 3027099#0 505404870#0 351684045#0 133875181#0 351684503 3025859#0 3025859#5"/>
    </vehicle>
    <vehicle id="65" depart="51.71">
        <route edges="837573373#4 444272568#1 -gneE28 -gneE45 -gneE43 -gneE26 -gneE25 404611919#0 gneE51 -gneE53 -gneE50"/>
    </vehicle>
    <vehicle id="66" depart="52.51">
        <route edges="197960551 55290809#0 3441738#0 55290801 4236439#0 39333603"/>
    </vehicle>
    <vehicle id="67" depart="53.30">
        <route edges="-3086258 331545472#2 3086259#0 3086261 3091989#1 -2524 30991997#1 1040747475 55296264#1 -2756#1"/>
    </vehicle>
    <vehicle id="68" depart="54.10">
        <route edges="-133875223#1 -133875223#0 -4357619 4340722#0 133875244#0 4338446#0 133875252#0 133875252#3 4338448#0 48665005 115952095#0 -546225667#1 -8769288#1 8769305"/>
    </vehicle>
    <vehicle id="69" depart="54.90">
        <route edges="3086250 4321650 167283#0 167283#0.164 -55602323#6 -57962409 -822839889"/>
    </vehicle>
    <vehicle id="70" depart="55.69">
        <route edges="-351684503 -351685326 -55290805 34243632#0 133875195#0 133875195#3 55290800 55290807 55290799"/>
    </vehicle>
    <vehicle id="71" depart="56.49">
        <route edges="-4279571 -175773133 683583893 115353253#0"/>
    </vehicle>
    <vehicle id="72" depart="57.28">
        <route edges="-133875262#1 -133875261#1 -3025859#8 -3025859#7 -3025859#5 -3025859#3 -351684503 -351685326 -55290805 34243632#0 133875195#0 133875195#3 55290800 55290807 55290799 984881209 37777462 55290809#0 3441738#0 55290801 -2527#2 4644987#0 55296249#0 gneE91 55602323#3 55602323#3.91"/>
    </vehicle>
    <vehicle id="73" depart="58.08">
        <route edges="-34784840#1 39183706 192668650#2 192668650#3 gneE13 gneE11 3292445#0.4 3292445#3 209#0 55290798#0 210#1 30992002 -3120967#1 8769305 309842640#0"/>
    </vehicle>
    <vehicle id="74" depart="58.87">
        <route edges="4045612#0 4045612#1 3091989#1 -2524 30991997#1 1040747475 2757#1 1025513686#0 1025513686#1 188924487#0 -3292445#8 -3292445#2 gneE12 -192668650#4 -192668650#2 -192668650#1 192668649#1"/>
    </vehicle>
    <vehicle id="75" depart="59.67">
        <route edges="-403281810#1 5191097#2 141841564#7 -gneE97 133875252#3 133875256#0 133875255 4338449#0 4357619 133875223#0 133875223#1 133875223#3 gneE82 133875223#6 133875223#11 133875223#17 984881209 37777462 55290809#0 3441738#0"/>
    </vehicle>
    <vehicle id="76" depart="60.46">
        <route edges="-444272568#2 -444272568#0 -837573373#3 -837573373#1"/>
    </vehicle>
    <vehicle id="77" depart="61.26">
        <route edges="-192674402#1 -959553052#4 -959553052#2 -34784840#1 39183706 192668650#2 192668650#3 gneE13 gneE11 3292445#0.4 3292445#3 209#0 55290798#0 210#1 30992002 -3120967#1 8769305 309842640#0 39352131#0 39352131#2 39352131#3 837572187#0 837572187#1 837573373#0 837573373#2 837573373#4 444272568#1 -gneE28 -gneE45 -gneE43 -gneE26"/>
    </vehicle>
    <vehicle id="78" depart="62.06">
        <route edges="198245314#1 55296262 197960551 55290809#0 3441738#0 55290801"/>
    </vehicle>
    <vehicle id="79" depart="62.85">
        <route edges="3441738#0 55290801 -2527#2 4644987#0 55296249#0 gneE91 55602323#3 55602323#3.91 -8769288#1 8769305 309842640#0 39352131#0 39352131#2 39352131#3 837572187#0 3600469#0"/>
    </vehicle>
    <vehicle id="80" depart="63.65">
        <route edges="55296262 197960551 55290809#0 3441738#0 55290801 -2527#2 4644987#0"/>
    </vehicle>
    <vehicle id="81" depart="64.44">
        <route edges="gneE13 gneE11 3292445#0.4 3292445#3 209#0 55290798#0 -gneE54"/>
    </vehicle>
    <vehicle id="82" depart="65.24">
        <route edges="2757#0 2757#1 1025513686#0 1025513686#1 188924487#0 209#0 55290798#0 210#1 30992002 -3120967#1 167257#2 884727976#0"/>
    </vehicle>
    <vehicle id="83" depart="66.03">
        <route edges="2757#0 2757#1 1025513686#0 1025513686#1 188924487#0 209#0 55290798#0 210#1 30992002 -3120967#1 8769305 309842640#0"/>
    </vehicle>
    <vehicle id="84" depart="66.83">
        <route edges="192668650#3 gneE13 gneE11 3292445#0.4 3292445#3 209#0 55290798#0 210#1 30992002 -3120967#1 8769305 309842640#0 39352131#0 39352131#2 39352131#3 837572187#0 837572187#1 837573373#0 837573373#2 837573373#4 444272568#1"/>
    </vehicle>
    <vehicle id="85" depart="67.62">
        <route edges="gneE26 gneE43 gneE45 gneE28 -444272568#2 -444272568#0 -837573373#3"/>
    </vehicle>
    <vehicle id="86" depart="68.42">
        <route edges="133875223#6 133875223#11 133875223#17 984881209 37777462 55290809#0 3441738#0 55290801 4236439#0 4236439#1 3441067#0 -203240967#2 -198245314#0 -26312537#4"/>
    </vehicle>
    <vehicle id="87" depart="69.22">
        <route edges="3441738#0 55290801 -2527#2 4644987#0 55296249#0 gneE91 55602323#3 55602323#3.91 -8769288#1 8769305 32751327 3086252#0 4321650"/>
    </vehicle>
    <vehicle id="88" depart="70.01">
        <route edges="3026119#0 3026120 -351684503 -351685326 -55290805 34243632#0 133875195#0 133875195#3 55290800 3027057"/>
    </vehicle>
    <vehicle id="89" depart="70.81">
        <route edges="3026120 -351684503 -351685326 -55290805 34243632#0 133875195#0 133875195#3 55290800 55290807 55290799 984881209 37777462"/>
    </vehicle>
    <vehicle id="90" depart="71.60">
        <route edges="-133875249#2 -133875226#2 -133875226#0 -3381569#3 94820#0 133875252#0 gneE97 -141841564#11 -5191097#3 403281810#0"/>
    </vehicle>
    <vehicle id="91" depart="72.40">
        <route edges="gneE91 55602323#3 55602323#3.91 -8769288#1 3120967#0 773250139#1 331545472#2 3086259#0 3086261 3091989#1 -2524 30991997#1 1040747475 55296264#1"/>
    </vehicle>
    <vehicle id="92" depart="73.19">
        <route edges="197960551 55290809#0 3441738#0 55290801 4236439#0 39333603"/>
    </vehicle>
    <vehicle id="93" depart="73.99">
        <route edges="2527#0 4236439#0 4236439#1 3441067#0 55296262 4479201#0"/>
    </vehicle>
    <vehicle id="94" depart="74.78">
        <route edges="gneE53 -gneE51 -404611919#1 gneE25 gneE26 gneE43 gneE45 gneE28 -444272568#2 -444272568#0 -837573373#3 -837573373#1"/>
    </vehicle>
    <vehicle id="95" depart="75.58">
        <route edges="4340722#0 133875244#0 133875232#0 3381569#0 133875226#0 940770422#0 553586920#0"/>
    </vehicle>
    <vehicle id="96" depart="76.38">
        <route edges="373843895 48586336#1 -192674402#2 -192674402#1 -959553052#4 -959553052#2 -34784840#1 39183706 192668650#2 192668650#3 gneE13 gneE11 3292445#0.4 3292445#3 209#0 55290798#0 210#1 30992002 -3120967#1 8769305"/>
    </vehicle>
    <vehicle id="97" depart="77.17">
        <route edges="-2756#1 2757#0 2757#1 1025513686#0 1025513686#1 188924487#0 209#0 55290798#0 210#1"/>
    </vehicle>
    <vehicle id="98" depart="77.97">
        <route edges="-4279571 -175773133 683583893 115353253#0"/>
    </vehicle>
    <vehicle id="99" depart="78.76">
        <route edges="837573373#4 444272568#1 -gneE28 -gneE45 -gneE43 -gneE26 -gneE25 404611919#0 gneE51 -gneE52 -133875245#3 -133875245#2 -133875236#3 -133875236#1 -133875229 -180869463#1 -133875249#2 -133875226#2 -133875226#0 -3381569#3 94820#0 133875252#0 133875252#3 4338448#0 48665005 115952095#0 -546225667#1 -8769288#1 8769305 309842640#0"/>
    </vehicle>
    <vehicle id="100" depart="79.56">
        <route edges="133875223#6 133875223#11 133875223#17 984881209 37777462 55290809#0 3441738#0 55290801 -2527#2 4644987#0 55296249#0"/>
    </vehicle>
    <vehicle id="101" depart="80.35">
        <route edges="-4644987#1 2527#0 4236439#0 4236439#1 3441067#0 55296262 4479201#0 4346053 3027099#0 505404870#0 351684045#0 133875181#0 351684503 3025859#0 -3026116#5"/>
    </vehicle>
    <vehicle id="102" depart="81.15">
        <route edges="2748#0 198245314#1 55296262 197960551 55290809#0 3441738#0 55290801 -2527#2 4644987#0 55296249#0"/>
    </vehicle>
    <vehicle id="103" depart="81.94">
        <route edges="55290800 55290807 55290799 984881209 37777462 55290809#0 3441738#0 55290801 -2527#2 4644987#0 55296249#0 gneE91 55602323#3 55602323#3.91 -8769288#1 3120967#0 773250139#1 331545472#2 -210#1 -gneE54"/>
    </vehicle>
    <vehicle id="104" depart="82.74">
        <route edges="326284091 984881212 54401067 gneE73 gneE74 gneE75 48586837 3024770 54401052#2 414017617 683648842#0 683648842#1 3024957 175773133 3024962 48207559 52030084#0 2765 52573118#0 2755#0 52573119 48207221"/>
    </vehicle>
    <vehicle id="105" depart="83.54">
        <route edges="192668650#3 gneE13 gneE11 3292445#0.4 3292445#3 209#0 55290798#0 210#1 30992002 -3120967#1 167257#2 -55602323#6 -gneE91 -55296249#2 -4644987#1 2527#0 4236439#0 4236439#1 3441067#0 55296262"/>
    </vehicle>
    <vehicle id="106" depart="84.33">
        <route edges="210#1 30992002 -3120967#1 167257#2 -55602323#6 -gneE91 -55296249#2 -4644987#1 2527#0 4236439#0 4236439#1 3441067#0 55296262 4479201#0 4346053 3027099#0 505404870#0 351684045#0"/>
    </vehicle>
    <vehicle id="107" depart="85.13">
        <route edges="3024962 48207559 52030084#0 2765 52573118#0 2755#0 52573119 -55290812#1 -2756#1 2757#0 2757#1 1025513686#0 1025513686#1 2761 48173166#0 -899656225#3"/>
    </vehicle>
    <vehicle id="108" depart="85.92">
        <route edges="115952099#2 -30906#3 38619223#0 133875255 4338449#0 4357619 133875223#0 133875223#1 133875223#3 gneE82 133875223#6 133875223#11 133875223#17 984881209 37777462 55290809#0 3441738#0 55290801 4236439#0 4236439#1 3441067#0 -203240967#2"/>
    </vehicle>
    <vehicle id="109" depart="86.72">
        <route edges="2524 39340468#0 39340468#1 4271799#1 -26637310#2 3126773 39333941#2 127632770#0 167257#2 -55602323#6 -gneE91 -55296249#2 -4644987#1 2527#0"/>
    </vehicle>
    <vehicle id="110" depart="87.51">
        <route edges="55602323#3.91 884727976#0 gneE92 115952099#2 -30906#3 38619223#0 133875255 133875259#0 133875244#0 133875232#0 3381569#0 133875226#0"/>
    </vehicle>
    <vehicle id="111" depart="88.31">
        <route edges="37777462 55290809#0 3441738#0 55290801 -2527#2 4644987#0 55296249#0 gneE91 55602323#3 55602323#3.91 -8769288#1 8769305 309842640#0 39352131#0 39352131#2 39352131#3 837572187#0 837572187#1 837573373#0 837573373#2 837573373#4 444272568#1 -gneE28 -gneE45"/>
    </vehicle>
    <vehicle id="112" depart="89.10">
        <route edges="133875223#6 133875223#11 133875223#17 984881209 37777462 55290809#0 3441738#0 55290801 -2527#2 4644987#0 55296249#0 gneE91 4231695#0 252506895"/>
    </vehicle>
    <vehicle id="113" depart="89.90">
        <route edges="55290798#0 210#1 30992002 773250139#1"/>
    </vehicle>
    <vehicle id="114" depart="90.70">
        <route edges="4479201#0 4346053 3027099#0 505404870#0 351684045#0 133875181#0 351684503 3025859#0 3025859#5 3025859#6 3025859#8"/>
    </vehicle>
    <vehicle id="115" depart="91.49">
        <route edges="57962409 -gneE91 -55296249#2 -4644987#1 2527#0 4236439#0 4236439#1 3441067#0 55296262 4479201#0 4346053 3027099#0 505404870#0 351684045#0 133875181#0 351684503 3025859#0 -3026116#5 -3026116#2 3026194#0 3026194#2"/>
    </vehicle>
    <vehicle id="116" depart="92.29">
        <route edges="-4357619 4340722#0 133875244#0 4338446#0 133875252#0 133875252#3 4338448#0 48665005 115952095#0 -546225667#1 -8769288#1 3120967#0 773250139#1 331545472#2 3086259#0 3086261 3091989#1 -2524 30991997#1 1040747475 55296264#1 55290812#0 48207221 2742 52573120 55290813#0 -4279571 -175773133 683583893 115353253#0 3024958#0"/>
    </vehicle>
    <vehicle id="117" depart="93.08">
        <route edges="133875226#0 133875226#1 133875249#0 180869463#0 133875229"/>
    </vehicle>
    <vehicle id="118" depart="93.88">
        <route edges="210#1 30992002 -3120967#1 167257#2 -55602323#6 -gneE91 -55296249#2 -4644987#1 2527#0 4236439#0 4236439#1 3441067#0 55296262 4479201#0 4346053 3027099#0 505404870#0 351684045#0"/>
    </vehicle>
    <vehicle id="119" depart="94.67">
        <route edges="3024962 48207559 52030084#0 38964070#0 39348547#1 -3609801#3 2748#0 198245314#1 55296262 4479201#0 4346053"/>
    </vehicle>
    <vehicle id="120" depart="95.47">
        <route edges="-444272568#2 -444272568#0 -837573373#3 -837573373#1"/>
    </vehicle>
    <vehicle id="121" depart="96.27">
        <route edges="gneE91 55602323#3 55602323#3.91 -8769288#1 3120967#0 773250139#1 331545472#2 3086259#0 3086261 3091989#1 -2524 30991997#1 1040747475 55296264#1"/>
    </vehicle>
    <vehicle id="122" depart="97.06">
        <route edges="188924488#0 7985210#1 431533372#0 2756#0 55290812#0 48207221 2742 52573120 55290813#0 -4279571 -175773133 683583893 115353253#0 115353253#1 48206750"/>
    </vehicle>
    <vehicle id="123" depart="97.86">
        <route edges="133875249#0 180869463#0 133875229 133875236#0 133875236#2 133875245#0 133875245#3 gneE52 gneE52.55 -gneE51 -404611919#1 gneE25 gneE26 gneE43 gneE45 gneE28 -444272568#2 -444272568#0 39645355#0"/>
    </vehicle>
    <vehicle id="124" depart="98.65">
        <route edges="-133875226#0 -3381569#3 94820#0 133875252#0 133875252#3 4338448#0 48665005 115952095#0 -546225667#1 -8769288#1 3120967#0 773250139#1 331545472#2 3086259#0 3086261 3091989#1 -2524 30991997#1 1040747475 2757#1 1025513686#0 1025513686#1 2761 48173166#0"/>
    </vehicle>
    <vehicle id="125" depart="99.45">
        <route edges="-3026118#5 3025859#6 3025859#8 133875261#0 133875262#0 133875260#0 48586818 gneE74 54401064 192674702#0 279357279#1 192674701 58295596#0 -240290973#1 3024960#0"/>
    </vehicle>
    <vehicle id="126" depart="100.24">
        <route edges="gneE82 133875223#6 133875223#11 133875223#17 984881209 37777462 55290809#0 3441738#0 55290801 -2527#2 4644987#0"/>
    </vehicle>
    <vehicle id="127" depart="101.04">
        <route edges="-3026118#5 3025859#6 3025859#8 133875261#0 133875262#0 133875260#0 48586818 gneE74 54401064 192674702#0 279357279#1 192674701 58295596#0 -240290973#1 3024960#0"/>
    </vehicle>
    <vehicle id="128" depart="101.83">
        <route edges="-192674402#1 -959553052#4 -959553052#2 -34784840#1 39183706 192668650#2 192668650#3 gneE13 3292444#0.4 899645883#2 899645883#5 3292446"/>
    </vehicle>
    <vehicle id="129" depart="102.63">
        <route edges="55296262 197960551 55290809#0 3441738#0 55290801 -2527#2 4644987#0"/>
    </vehicle>
    <vehicle id="130" depart="103.43">
        <route edges="3609801#1 -39348547#2 39348546#0 52573118#0 2755#0 52573119"/>
    </vehicle>
    <vehicle id="131" depart="104.22">
        <route edges="4479201#0 4346053 3027099#0 505404870#0 351684045#0 133875181#0 351684503 3025859#0 3025859#5 3025859#6 3025859#8"/>
    </vehicle>
    <vehicle id="132" depart="105.02">
        <route edges="133875226#0 133875226#1 133875249#0 180869463#0 133875229"/>
    </vehicle>
    <vehicle id="133" depart="105.81">