<?xml version="1.0" encoding="UTF-8"?>
<!-- generated on 2022-05-06 11:32:09.836602 by tripsFromRoutes.py v1_10_0+0000-83496a5972
  options: -t basicTrips.trips.xml -r routes/basicRoutes.rou.xml -i routes/sampledRoutes.rou.xml -o ltn/ltnTrips.trips.xml
-->
<routes>
        <trip id="0" depart="0.00" fromJunction="333105" toJunction="3283841023"/>
        <trip id="1" depart="0.73" fromJunction="cluster_333094_4168070830_4171703355_4171703356_4171703358" toJunction="13875355"/>
        <trip id="2" depart="1.46" fromJunction="333571" toJunction="13804944"/>
        <trip id="3" depart="2.18" fromJunction="1473154572" toJunction="1473154548"/>
        <trip id="4" depart="2.91" fromJunction="3283841023" toJunction="3171233682"/>
        <trip id="5" depart="3.64" fromJunction="617137888" toJunction="gneJ64"/>
        <trip id="6" depart="4.37" fromJunction="469370419" toJunction="368610171"/>
        <trip id="7" depart="5.09" fromJunction="14718712" toJunction="4174192593"/>
        <trip id="8" depart="5.82" fromJunction="379926" toJunction="13804946"/>
        <trip id="9" depart="6.55" fromJunction="774075803" toJunction="288270538"/>
        <trip id="10" depart="7.28" fromJunction="cluster_381491_381492" toJunction="4174192593"/>
        <trip id="11" depart="8.00" fromJunction="14718712" toJunction="gneJ63"/>
        <trip id="12" depart="8.73" fromJunction="469370423" toJunction="7817323883"/>
        <trip id="13" depart="9.46" fromJunction="617142404" toJunction="520792121"/>
        <trip id="14" depart="10.19" fromJunction="380031" toJunction="cluster_703516135_703516137"/>
        <trip id="15" depart="10.91" fromJunction="gneJ84" toJunction="379921"/>
        <trip id="16" depart="11.64" fromJunction="13866117" toJunction="1473154603"/>
        <trip id="17" depart="12.37" fromJunction="4056421433" toJunction="381501"/>
        <trip id="18" depart="13.10" fromJunction="13862775" toJunction="469370423"/>
        <trip id="19" depart="13.82" fromJunction="279482" toJunction="126714"/>
        <trip id="20" depart="14.55" fromJunction="14718723" toJunction="1473154561"/>
        <trip id="21" depart="15.28" fromJunction="cluster_1412174336_257159" toJunction="279487"/>
        <trip id="22" depart="16.01" fromJunction="4056421432" toJunction="cluster_1070601793_1070601814_4316723365_5364217784"/>
        <trip id="23" depart="16.73" fromJunction="126714" toJunction="gneJ61"/>
        <trip id="24" depart="17.46" fromJunction="475254177" toJunction="13804921"/>
        <trip id="25" depart="18.19" fromJunction="333636" toJunction="cluster_703516135_703516137"/>
        <trip id="26" depart="18.92" fromJunction="333070" toJunction="13804966"/>
        <trip id="27" depart="19.64" fromJunction="cluster_13862782_279480" toJunction="4058166352"/>
        <trip id="28" depart="20.37" fromJunction="1473154582" toJunction="475254179"/>
        <trip id="29" depart="21.10" fromJunction="475254177" toJunction="368610171"/>
        <trip id="30" depart="21.83" fromJunction="25251965" toJunction="13804935"/>
        <trip id="31" depart="22.55" fromJunction="1473154609" toJunction="16204693"/>
        <trip id="32" depart="23.28" fromJunction="257158" toJunction="14718744"/>
        <trip id="33" depart="24.01" fromJunction="380031" toJunction="1473154548"/>
        <trip id="34" depart="24.74" fromJunction="13889131" toJunction="cluster_379927_470453132"/>
        <trip id="35" depart="25.46" fromJunction="cluster_379927_470453132" toJunction="25251967"/>
        <trip id="36" depart="26.19" fromJunction="13862775" toJunction="4625345126"/>
        <trip id="37" depart="26.92" fromJunction="1473154582" toJunction="475254179"/>
        <trip id="38" depart="27.65" fromJunction="612671370" toJunction="13866106"/>
        <trip id="39" depart="28.38" fromJunction="cluster_1075355261_246810" toJunction="522884479"/>
        <trip id="40" depart="29.10" fromJunction="471761118" toJunction="745789517"/>
        <trip id="41" depart="29.83" fromJunction="4174192593" toJunction="14718710"/>
        <trip id="42" depart="30.56" fromJunction="gneJ29" toJunction="13875355"/>
        <trip id="43" depart="31.29" fromJunction="13866106" toJunction="13866114"/>
        <trip id="44" depart="32.01" fromJunction="cluster_381491_381492" toJunction="612671457"/>
        <trip id="45" depart="32.74" fromJunction="905000573" toJunction="gneJ28"/>
        <trip id="46" depart="33.47" fromJunction="381489" toJunction="cluster_4307149661_471431611"/>
        <trip id="47" depart="34.20" fromJunction="25251965" toJunction="gneJ63"/>
        <trip id="48" depart="34.92" fromJunction="126714" toJunction="475254177"/>
        <trip id="49" depart="35.65" fromJunction="13804905" toJunction="13804950"/>
        <trip id="50" depart="36.38" fromJunction="333986" toJunction="279482"/>
        <trip id="51" depart="37.11" fromJunction="333075" toJunction="6875949813"/>
        <trip id="52" depart="37.83" fromJunction="253742" toJunction="470453035"/>
        <trip id="53" depart="38.56" fromJunction="13804959" toJunction="6875949813"/>
        <trip id="54" depart="39.29" fromJunction="475254177" toJunction="4056421433"/>
        <trip id="55" depart="40.02" fromJunction="25251965" toJunction="13866106"/>
        <trip id="56" depart="40.74" fromJunction="cluster_126985_13861824_442584046" toJunction="cluster_13862100_3577030728_3577030736_3577030740_3577030742"/>
        <trip id="57" depart="41.47" fromJunction="617142403" toJunction="9582390252"/>
        <trip id="58" depart="42.20" fromJunction="1473154591" toJunction="1473154609"/>
        <trip id="59" depart="42.93" fromJunction="13875355" toJunction="333095"/>
        <trip id="60" depart="43.65" fromJunction="475254177" toJunction="13804957"/>
        <trip id="61" depart="44.38" fromJunction="1473154603" toJunction="16204696"/>
        <trip id="62" depart="45.11" fromJunction="14718750" toJunction="279484"/>
        <trip id="63" depart="45.84" fromJunction="13804921" toJunction="gneJ29"/>
        <trip id="64" depart="46.56" fromJunction="13866113" toJunction="475254178"/>
        <trip id="65" depart="47.29" fromJunction="cluster_379927_470453132" toJunction="4174192593"/>
        <trip id="66" depart="48.02" fromJunction="570812" toJunction="13804984"/>
        <trip id="67" depart="48.75" fromJunction="cluster_381491_381492" toJunction="381655"/>
        <trip id="68" depart="49.47" fromJunction="gneJ63" toJunction="293792170"/>
        <trip id="69" depart="50.20" fromJunction="cluster_333094_4168070830_4171703355_4171703356_4171703358" toJunction="13804944"/>
        <trip id="70" depart="50.93" fromJunction="13862750" toJunction="cluster_13862782_279480"/>
        <trip id="71" depart="51.66" fromJunction="14389032" toJunction="13862750"/>
        <trip id="72" depart="52.38" fromJunction="cluster_13804948_2032172135" toJunction="13866106"/>
        <trip id="73" depart="53.11" fromJunction="13804996" toJunction="279487"/>
        <trip id="74" depart="53.84" fromJunction="279482" toJunction="246632"/>
        <trip id="75" depart="54.57" fromJunction="cluster_703516135_703516137" toJunction="13804945"/>
        <trip id="76" depart="55.30" fromJunction="1473154541" toJunction="333986"/>
        <trip id="77" depart="56.02" fromJunction="126714" toJunction="13866114"/>
        <trip id="78" depart="56.75" fromJunction="17863757" toJunction="126983"/>
        <trip id="79" depart="57.48" fromJunction="333660" toJunction="379921"/>
        <trip id="80" depart="58.21" fromJunction="379921" toJunction="gneJ27"/>
        <trip id="81" depart="58.93" fromJunction="13866117" toJunction="1473154603"/>
        <trip id="82" depart="59.66" fromJunction="3283841023" toJunction="cluster_288271135_288271373_333099_333108_443120943_555196291_740158974"/>
        <trip id="83" depart="60.39" fromJunction="1473154582" toJunction="475254179"/>
        <trip id="84" depart="61.12" fromJunction="cluster_381491_381492" toJunction="cluster_14718711_368610177"/>
        <trip id="85" depart="61.84" fromJunction="13804984" toJunction="246632"/>
        <trip id="86" depart="62.57" fromJunction="14718723" toJunction="cluster_14718711_368610177"/>
        <trip id="87" depart="63.30" fromJunction="13889131" toJunction="16204696"/>
        <trip id="88" depart="64.03" fromJunction="1473154587" toJunction="gneJ37"/>
        <trip id="89" depart="64.75" fromJunction="13804966" toJunction="cluster_443914196_4910563205_4910563207_7846562043"/>
        <trip id="90" depart="65.48" fromJunction="13866106" toJunction="13866114"/>
        <trip id="91" depart="66.21" fromJunction="612671370" toJunction="13866106"/>
        <trip id="92" depart="66.94" fromJunction="6623012259" toJunction="1473154582"/>
        <trip id="93" depart="67.66" fromJunction="cluster_15729450_333085_333093_471232928" toJunction="cluster_471497440_5654827354_5654827355"/>
        <trip id="94" depart="68.39" fromJunction="13804921" toJunction="gneJ29"/>
        <trip id="95" depart="69.12" fromJunction="16204693" toJunction="4625345126"/>
        <trip id="96" depart="69.85" fromJunction="cluster_333094_4168070830_4171703355_4171703356_4171703358" toJunction="13875355"/>
        <trip id="97" depart="70.57" fromJunction="gneJ87" toJunction="4058166352"/>
        <trip id="98" depart="71.30" fromJunction="cluster_15729450_333085_333093_471232928" toJunction="612671370"/>
        <trip id="99" depart="72.03" fromJunction="379926" toJunction="13804959"/>
        <trip id="100" depart="72.76" fromJunction="4056421433" toJunction="333986"/>
        <trip id="101" depart="73.48" fromJunction="cluster_381491_381492" toJunction="cluster_14718711_368610177"/>
        <trip id="102" depart="74.21" fromJunction="570812" toJunction="1075355263"/>
        <trip id="103" depart="74.94" fromJunction="13862762" toJunction="cluster_703516135_703516137"/>
        <trip id="104" depart="75.67" fromJunction="13866106" toJunction="379932"/>
        <trip id="105" depart="76.39" fromJunction="380031" toJunction="14389034"/>
        <trip id="106" depart="77.12" fromJunction="13862755" toJunction="13804947"/>
        <trip id="107" depart="77.85" fromJunction="379926" toJunction="381489"/>
        <trip id="108" depart="78.58" fromJunction="cluster_3577030724_3577030726_3577030733" toJunction="1473154541"/>
        <trip id="109" depart="79.30" fromJunction="379921" toJunction="381501"/>
        <trip id="110" depart="80.03" fromJunction="379921" toJunction="gneJ27"/>
        <trip id="111" depart="80.76" fromJunction="1473154588" toJunction="13889131"/>
        <trip id="112" depart="81.49" fromJunction="379926" toJunction="586381590"/>
        <trip id="113" depart="82.22" fromJunction="gneJ65" toJunction="13804945"/>
        <trip id="114" depart="82.94" fromJunction="14718723" toJunction="gneJ28"/>
        <trip id="115" depart="83.67" fromJunction="471761118" toJunction="cluster_13862782_279480"/>
        <trip id="116" depart="84.40" fromJunction="13866114" toJunction="333670"/>
        <trip id="117" depart="85.13" fromJunction="774075803" toJunction="1075355263"/>
        <trip id="118" depart="85.85" fromJunction="13804988" toJunction="379933"/>
        <trip id="119" depart="86.58" fromJunction="907153673" toJunction="333062"/>
        <trip id="120" depart="87.31" fromJunction="13804921" toJunction="gneJ29"/>
        <trip id="121" depart="88.04" fromJunction="cluster_333094_4168070830_4171703355_4171703356_4171703358" toJunction="13875355"/>
        <trip id="122" depart="88.76" fromJunction="cluster_703516135_703516137" toJunction="4058166352"/>
        <trip id="123" depart="89.49" fromJunction="475254177" toJunction="368610171"/>
        <trip id="124" depart="90.22" fromJunction="4056421432" toJunction="16204683"/>
        <trip id="125" depart="90.95" fromJunction="cluster_333094_4168070830_4171703355_4171703356_4171703358" toJunction="13875355"/>
        <trip id="126" depart="91.67" fromJunction="381501" toJunction="333660"/>
        <trip id="127" depart="92.40" fromJunction="14718712" toJunction="687090"/>
        <trip id="128" depart="93.13" fromJunction="cluster_4307149661_471431611" toJunction="379933"/>
        <trip id="129" depart="93.86" fromJunction="16204693" toJunction="4625345126"/>
        <trip id="130" depart="94.58" fromJunction="17863752" toJunction="25679464"/>
        <trip id="131" depart="95.31" fromJunction="379933" toJunction="126715"/>
        <trip id="132" depart="96.04" fromJunction="13862775" toJunction="4625345126"/>
        <trip id="133" depart="96.77" fromJunction="522884479" toJunction="4625345126"/>
        <trip id="134" depart="97.49" fromJunction="333086" toJunction="381503"/>
        <trip id="135" depart="98.22" fromJunction="gneJ28" toJunction="gneJ86"/>
        <trip id="136" depart="98.95" fromJunction="14718723" toJunction="381503"/>
        <trip id="137" depart="99.68" fromJunction="333086" toJunction="13804988"/>
        <trip id="138" depart="100.40" fromJunction="13866106" toJunction="13866114"/>
        <trip id="139" depart="101.13" fromJunction="13862775" toJunction="4625345126"/>
        <trip id="140" depart="101.86" fromJunction="gneJ8" toJunction="13862754"/>
        <trip id="141" depart="102.59" fromJunction="13866113" toJunction="475254178"/>
        <trip id="142" depart="103.31" fromJunction="333636" toJunction="gneJ8"/>
        <trip id="143" depart="104.04" fromJunction="13875355" toJunction="6623012259"/>
        <trip id="144" depart="104.77" fromJunction="cluster_1070737786_2032089847_2032089850_3236294829_506370638" toJunction="246811"/>
        <trip id="145" depart="105.50" fromJunction="13804946" toJunction="25251965"/>
        <trip id="146" depart="106.22" fromJunction="13866106" toJunction="13866114"/>
        <trip id="147" depart="106.95" fromJunction="570812" toJunction="1473154608"/>
        <trip id="148" depart="107.68" fromJunction="gneJ63" toJunction="2032161695"/>
        <trip id="149" depart="108.41" fromJunction="13866113" toJunction="475254178"/>
        <trip id="150" depart="109.14" fromJunction="471761118" toJunction="1473154582"/>
        <trip id="151" depart="109.86" fromJunction="475254177" toJunction="586381590"/>
        <trip id="152" depart="110.59" fromJunction="13866106" toJunction="13866114"/>
        <trip id="153" depart="111.32" fromJunction="333095" toJunction="13804966"/>
        <trip id="154" depart="112.05" fromJunction="cluster_703516135_703516137" toJunction="279481"/>
        <trip id="155" depart="112.77" fromJunction="cluster_333094_4168070830_4171703355_4171703356_4171703358" toJunction="13862764"/>
        <trip id="156" depart="113.50" fromJunction="333105" toJunction="13862781"/>
        <trip id="157" depart="114.23" fromJunction="13804921" toJunction="279474"/>
        <trip id="158" depart="114.96" fromJunction="381490" toJunction="13804959"/>
        <trip id="159" depart="115.68" fromJunction="380031" toJunction="381501"/>
        <trip id="160" depart="116.41" fromJunction="1473154582" toJunction="475254179"/>
        <trip id="161" depart="117.14" fromJunction="1473154561" toJunction="6623012259"/>
        <trip id="162" depart="117.87" fromJunction="cluster_3577030724_3577030726_3577030733" toJunction="1473154541"/>
        <trip id="163" depart="118.59" fromJunction="1473154582" toJunction="475254179"/>
        <trip id="164" depart="119.32" fromJunction="257158" toJunction="cluster_1351316743_14387841"/>
        <trip id="165" depart="120.05" fromJunction="cluster_333063_380066" toJunction="905000573"/>
        <trip id="166" depart="120.78" fromJunction="380031" toJunction="522884479"/>
        <trip id="167" depart="121.50" fromJunction="333636" toJunction="1473154609"/>
        <trip id="168" depart="122.23" fromJunction="3171233687" toJunction="13804921"/>
        <trip id="169" depart="122.96" fromJunction="416581489" toJunction="13862750"/>
        <trip id="170" depart="123.69" fromJunction="cluster_288271135_288271373_333099_333108_443120943_555196291_740158974" toJunction="6301063397"/>
        <trip id="171" depart="124.41" fromJunction="1473154582" toJunction="475254179"/>
        <trip id="172" depart="125.14" fromJunction="cluster_1412174336_257159" toJunction="cluster_13804917_13804919"/>
        <trip id="173" depart="125.87" fromJunction="4174192593" toJunction="13804984"/>
        <trip id="174" depart="126.60" fromJunction="475254178" toJunction="617137888"/>
        <trip id="175" depart="127.32" fromJunction="381490" toJunction="818738"/>
        <trip id="176" depart="128.05" fromJunction="13804946" toJunction="612683561"/>
        <trip id="177" depart="128.78" fromJunction="257158" toJunction="cluster_1075355261_246810"/>
        <trip id="178" depart="129.51" fromJunction="126714" toJunction="475254177"/>
        <trip id="179" depart="130.23" fromJunction="14718744" toJunction="333095"/>
        <trip id="180" depart="130.96" fromJunction="520792121" toJunction="25679463"/>
        <trip id="181" depart="131.69" fromJunction="gneJ29" toJunction="13875355"/>
        <trip id="182" depart="132.42" fromJunction="13862775" toJunction="4625345126"/>
        <trip id="183" depart="133.14" fromJunction="774075803" toJunction="288270538"/>
        <trip id="184" depart="133.87" fromJunction="cluster_1070601793_1070601814_4316723365_5364217784" toJunction="126714"/>
        <trip id="185" depart="134.60" fromJunction="14389032" toJunction="13862750"/>
        <trip id="186" depart="135.33" fromJunction="333986" toJunction="cluster_15729450_333085_333093_471232928"/>
        <trip id="187" depart="136.05" fromJunction="612237811" toJunction="471232901"/>
        <trip id="188" depart="136.78" fromJunction="1473154587" toJunction="gneJ37"/>
        <trip id="189" depart="137.51" fromJunction="279487" toJunction="cluster_13804917_13804919"/>
        <trip id="190" depart="138.24" fromJunction="14718723" toJunction="gneJ63"/>
        <trip id="191" depart="138.97" fromJunction="416581489" toJunction="288270538"/>
        <trip id="192" depart="139.69" fromJunction="13804995" toJunction="gneJ65"/>
        <trip id="193" depart="140.42" fromJunction="3171233682" toJunction="4174192592"/>
        <trip id="194" depart="141.15" fromJunction="617137889" toJunction="cluster_14718711_368610177"/>
        <trip id="195" depart="141.88" fromJunction="1473154587" toJunction="25679465"/>
        <trip id="196" depart="142.60" fromJunction="13866088" toJunction="cluster_381491_381492"/>
        <trip id="197" depart="143.33" fromJunction="1473154561" toJunction="6623012259"/>
        <trip id="198" depart="144.06" fromJunction="cluster_14718711_368610177" toJunction="4174192593"/>
        <trip id="199" depart="144.79" fromJunction="522884479" toJunction="4625345126"/>
        <trip id="200" depart="145.51" fromJunction="475254177" toJunction="246632"/>
        <trip id="201" depart="146.24" fromJunction="617137888" toJunction="379926"/>
        <trip id="202" depart="146.97" fromJunction="gneJ28" toJunction="1473154588"/>
        <trip id="203" depart="147.70" fromJunction="14718744" toJunction="333095"/>
        <trip id="204" depart="148.42" fromJunction="1473154573" toJunction="475254177"/>
        <trip id="205" depart="149.15" fromJunction="cluster_14718711_368610177" toJunction="16204696"/>
        <trip id="206" depart="149.88" fromJunction="13862755" toJunction="13804960"/>
        <trip id="207" depart="150.61" fromJunction="cluster_381491_381492" toJunction="1115426591"/>
        <trip id="208" depart="151.33" fromJunction="13862755" toJunction="13862762"/>
        <trip id="209" depart="152.06" fromJunction="cluster_379927_470453132" toJunction="379928"/>
        <trip id="210" depart="152.79" fromJunction="13875355" toJunction="6623012259"/>
        <trip id="211" depart="153.52" fromJunction="471761118" toJunction="gneJ84"/>
        <trip id="212" depart="154.24" fromJunction="gneJ87" toJunction="381501"/>
        <trip id="213" depart="154.97" fromJunction="257158" toJunction="cluster_13862782_279480"/>
        <trip id="214" depart="155.70" fromJunction="333075" toJunction="13862755"/>
        <trip id="215" depart="156.43" fromJunction="379926" toJunction="13797704"/>
        <trip id="216" depart="157.15" fromJunction="13862750" toJunction="293792170"/>
        <trip id="217" depart="157.88" fromJunction="617137888" toJunction="13804905"/>
        <trip id="218" depart="158.61" fromJunction="2032161695" toJunction="766728493"/>
        <trip id="219" depart="159.34" fromJunction="13862755" toJunction="774075803"/>
        <trip id="220" depart="160.06" fromJunction="333105" toJunction="617142405"/>
        <trip id="221" depart="160.79" fromJunction="13804996" toJunction="126719"/>
        <trip id="222" depart="161.52" fromJunction="cluster_381491_381492" toJunction="333986"/>
        <trip id="223" depart="162.25" fromJunction="333636" toJunction="379932"/>
        <trip id="224" depart="162.97" fromJunction="13866088" toJunction="612671370"/>
        <trip id="225" depart="163.70" fromJunction="cluster_126985_13861824_442584046" toJunction="470453035"/>
        <trip id="226" depart="164.43" fromJunction="gneJ7" toJunction="612237876"/>
        <trip id="227" depart="165.16" fromJunction="13804921" toJunction="381503"/>
        <trip id="228" depart="165.89" fromJunction="13805124" toJunction="1473154588"/>
        <trip id="229" depart="166.61" fromJunction="17863752" toJunction="16204693"/>
        <trip id="230" depart="167.34" fromJunction="cluster_13862782_279480" toJunction="907153673"/>
        <trip id="231" depart="168.07" fromJunction="13889131" toJunction="380065"/>
        <trip id="232" depart="168.80" fromJunction="333571" toJunction="13804944"/>
        <trip id="233" depart="169.52" fromJunction="612671359" toJunction="279481"/>
        <trip id="234" depart="170.25" fromJunction="570812" toJunction="13804905"/>
        <trip id="235" depart="170.98" fromJunction="475254178" toJunction="cluster_13804917_13804919"/>
        <trip id="236" depart="171.71" fromJunction="gneJ65" toJunction="612683561"/>
        <trip id="237" depart="172.43" fromJunction="13804957" toJunction="1473154609"/>
        <trip id="238" depart="173.16" fromJunction="333105" toJunction="gneJ86"/>
        <trip id="239" depart="173.89" fromJunction="25679463" toJunction="1473154548"/>
        <trip id="240" depart="174.62" fromJunction="3171233687" toJunction="1115426591"/>
        <trip id="241" depart="175.34" fromJunction="cluster_379927_470453132" toJunction="1060160480"/>
        <trip id="242" depart="176.07" fromJunction="475254177" toJunction="586381590"/>
        <trip id="243" depart="176.80" fromJunction="13804996" toJunction="6623012259"/>
        <trip id="244" depart="177.53" fromJunction="17863753" toJunction="13866114"/>
        <trip id="245" depart="178.25" fromJunction="gneJ27" toJunction="14718750"/>
        <trip id="246" depart="178.98" fromJunction="475254178" toJunction="gneJ86"/>
        <trip id="247" depart="179.71" fromJunction="13804921" toJunction="13866113"/>
        <trip id="248" depart="180.44" fromJunction="cluster_703516135_703516137" toJunction="gneJ87"/>
        <trip id="249" depart="181.16" fromJunction="14718712" toJunction="13805129"/>
        <trip id="250" depart="181.89" fromJunction="13866113" toJunction="469370423"/>
        <trip id="251" depart="182.62" fromJunction="cluster_333094_4168070830_4171703355_4171703356_4171703358" toJunction="13875355"/>
        <trip id="252" depart="183.35" fromJunction="380031" toJunction="14389034"/>
        <trip id="253" depart="184.07" fromJunction="1473154561" toJunction="6623012259"/>
        <trip id="254" depart="184.80" fromJunction="6623012259" toJunction="1473154582"/>
        <trip id="255" depart="185.53" fromJunction="3171233697" toJunction="cluster_4307149661_471431611"/>
        <trip id="256" depart="186.26" fromJunction="333086" toJunction="410480487"/>
        <trip id="257" depart="186.98" fromJunction="14718723" toJunction="gneJ28"/>
        <trip id="258" depart="187.71" fromJunction="14718723" toJunction="471234790"/>
        <trip id="259" depart="188.44" fromJunction="471761118" toJunction="13804984"/>
        <trip id="260" depart="189.17" fromJunction="333086" toJunction="13804935"/>
        <trip id="261" depart="189.89" fromJunction="13804957" toJunction="1473154608"/>
        <trip id="262" depart="190.62" fromJunction="1473154582" toJunction="475254179"/>
        <trip id="263" depart="191.35" fromJunction="cluster_1075355261_246810" toJunction="gneJ61"/>
        <trip id="264" depart="192.08" fromJunction="612671370" toJunction="13866106"/>
        <trip id="265" depart="192.81" fromJunction="279484" toJunction="617137888"/>
        <trip id="266" depart="193.53" fromJunction="25251965" toJunction="126714"/>
        <trip id="267" depart="194.26" fromJunction="379926" toJunction="13862755"/>
        <trip id="268" depart="194.99" fromJunction="13804959" toJunction="6875949813"/>
        <trip id="269" depart="195.72" fromJunction="381501" toJunction="4058166352"/>
        <trip id="270" depart="196.44" fromJunction="1473154587" toJunction="4174192593"/>
        <trip id="271" depart="197.17" fromJunction="469370419" toJunction="13804905"/>
        <trip id="272" depart="197.90" fromJunction="14718750" toJunction="13862748"/>
        <trip id="273" depart="198.63" fromJunction="380031" toJunction="13804905"/>
        <trip id="274" depart="199.35" fromJunction="gneJ29" toJunction="13875355"/>
        <trip id="275" depart="200.08" fromJunction="380031" toJunction="14718710"/>
        <trip id="276" depart="200.81" fromJunction="333986" toJunction="279482"/>
        <trip id="277" depart="201.54" fromJunction="gneJ66" toJunction="8712603037"/>
        <trip id="278" depart="202.26" fromJunction="333571" toJunction="766728493"/>
        <trip id="279" depart="202.99" fromJunction="279481" toJunction="14718720"/>
        <trip id="280" depart="203.72" fromJunction="522884479" toJunction="4625345126"/>
        <trip id="281" depart="204.45" fromJunction="gneJ65" toJunction="4174192593"/>
        <trip id="282" depart="205.17" fromJunction="gneJ65" toJunction="246632"/>
        <trip id="283" depart="205.90" fromJunction="380031" toJunction="1473154548"/>
        <trip id="284" depart="206.63" fromJunction="cluster_333063_380066" toJunction="471761118"/>
        <trip id="285" depart="207.36" fromJunction="cluster_1075355261_246810" toJunction="745789517"/>
        <trip id="286" depart="208.08" fromJunction="13875355" toJunction="6623012259"/>
        <trip id="287" depart="208.81" fromJunction="gneJ84" toJunction="14718720"/>
        <trip id="288" depart="209.54" fromJunction="126714" toJunction="gneJ62"/>
        <trip id="289" depart="210.27" fromJunction="380031" toJunction="522884479"/>
        <trip id="290" depart="210.99" fromJunction="475254177" toJunction="586381590"/>
        <trip id="291" depart="211.72" fromJunction="379921" toJunction="16204696"/>
        <trip id="292" depart="212.45" fromJunction="612683561" toJunction="126714"/>
        <trip id="293" depart="213.18" fromJunction="475254177" toJunction="4056421433"/>
        <trip id="294" depart="213.90" fromJunction="cluster_381491_381492" toJunction="612671457"/>
        <trip id="295" depart="214.63" fromJunction="cluster_15729450_333085_333093_471232928" toJunction="13853821"/>
        <trip id="296" depart="215.36" fromJunction="475254177" toJunction="586381590"/>
        <trip id="297" depart="216.09" fromJunction="14718712" toJunction="469370419"/>
        <trip id="298" depart="216.81" fromJunction="475254177" toJunction="13804921"/>
        <trip id="299" depart="217.54" fromJunction="cluster_379927_470453132" toJunction="13866113"/>
        <trip id="300" depart="218.27" fromJunction="cluster_1351316743_14387841" toJunction="687090"/>
        <trip id="301" depart="219.00" fromJunction="1473154609" toJunction="16204693"/>
        <trip id="302" depart="219.73" fromJunction="3171233687" toJunction="1075355263"/>
        <trip id="303" depart="220.45" fromJunction="1473154561" toJunction="6623012259"/>
        <trip id="304" depart="221.18" fromJunction="17863753" toJunction="126714"/>
        <trip id="305" depart="221.91" fromJunction="cluster_288271135_288271373_333099_333108_443120943_555196291_740158974" toJunction="gneJ72"/>
        <trip id="306" depart="222.64" fromJunction="475254177" toJunction="13804935"/>
        <trip id="307" depart="223.36" fromJunction="1473154572" toJunction="13862762"/>
        <trip id="308" depart="224.09" fromJunction="333062" toJunction="13804945"/>
        <trip id="309" depart="224.82" fromJunction="gneJ29" toJunction="cluster_1070737786_2032089847_2032089850_3236294829_506370638"/>
        <trip id="310" depart="225.55" fromJunction="333062" toJunction="4625345126"/>
        <trip id="311" depart="226.27" fromJunction="cluster_15729450_333085_333093_471232928" toJunction="470453035"/>
        <trip id="312" depart="227.00" fromJunction="1473154603" toJunction="6623012259"/>
        <trip id="313" depart="227.73" fromJunction="774075803" toJunction="293792170"/>
        <trip id="314" depart="228.46" fromJunction="126714" toJunction="475254177"/>
        <trip id="315" depart="229.18" fromJunction="13804957" toJunction="126715"/>
        <trip id="316" depart="229.91" fromJunction="333660" toJunction="13862775"/>
        <trip id="317" depart="230.64" fromJunction="cluster_13862782_279480" toJunction="13804988"/>
        <trip id="318" depart="231.37" fromJunction="cluster_1303664765_25679467" toJunction="25251965"/>
        <trip id="319" depart="232.09" fromJunction="cluster_379927_470453132" toJunction="13866113"/>
        <trip id="320" depart="232.82" fromJunction="333571" toJunction="gneJ65"/>