<?xml version="1.0" encoding="UTF-8"?>
<!-- generated on 2022-05-13 15:02:17.180747 by tripsFromRoutes.py v1_10_0+0000-83496a5972
  options: -t basicTrips.trips.xml -r routes/basicRoutes.rou.xml -i routes/sampledRoutes.rou.xml -o ltn/ltnTrips.trips.xml
-->
<routes>
        <trip id="0" depart="0.00" fromJunction="1473154588" toJunction="13866114"/>
        <trip id="1" depart="0.70" fromJunction="gneJ86" toJunction="cluster_4307149661_471431611"/>
        <trip id="2" depart="1.41" fromJunction="475254177" toJunction="246613"/>
        <trip id="3" depart="2.11" fromJunction="380031" toJunction="567451085"/>
        <trip id="4" depart="2.81" fromJunction="13866106" toJunction="17863753"/>
        <trip id="5" depart="3.51" fromJunction="gneJ7" toJunction="13804984"/>
        <trip id="6" depart="4.22" fromJunction="1473154581" toJunction="745789517"/>
        <trip id="7" depart="4.92" fromJunction="14389032" toJunction="gneJ91"/>
        <trip id="8" depart="5.62" fromJunction="13866113" toJunction="6623012259"/>
        <trip id="9" depart="6.33" fromJunction="13866106" toJunction="gneJ67"/>
        <trip id="10" depart="7.03" fromJunction="333571" toJunction="471761118"/>
        <trip id="11" depart="7.73" fromJunction="7817323883" toJunction="774075803"/>
        <trip id="12" depart="8.44" fromJunction="470727824" toJunction="379928"/>
        <trip id="13" depart="9.14" fromJunction="379926" toJunction="13862775"/>
        <trip id="14" depart="9.84" fromJunction="471761118" toJunction="612671370"/>
        <trip id="15" depart="10.54" fromJunction="13862756" toJunction="333684"/>
        <trip id="16" depart="11.25" fromJunction="475254177" toJunction="gneJ28"/>
        <trip id="17" depart="11.95" fromJunction="907153673" toJunction="4625345126"/>
        <trip id="18" depart="12.65" fromJunction="gneJ29" toJunction="13875355"/>
        <trip id="19" depart="13.36" fromJunction="cluster_333094_4168070830_4171703355_4171703356_4171703358" toJunction="253742"/>
        <trip id="20" depart="14.06" fromJunction="469370419" toJunction="cluster_1412174336_257159"/>
        <trip id="21" depart="14.76" fromJunction="gneJ8" toJunction="gneJ37"/>
        <trip id="22" depart="15.47" fromJunction="1473154603" toJunction="6623012259"/>
        <trip id="23" depart="16.17" fromJunction="279482" toJunction="4625345126"/>
        <trip id="24" depart="16.87" fromJunction="1473154588" toJunction="13866114"/>
        <trip id="25" depart="17.57" fromJunction="cluster_333094_4168070830_4171703355_4171703356_4171703358" toJunction="126719"/>
        <trip id="26" depart="18.28" fromJunction="253742" toJunction="469370423"/>
        <trip id="27" depart="18.98" fromJunction="13862775" toJunction="17863752"/>
        <trip id="28" depart="19.68" fromJunction="1473154573" toJunction="13866113"/>
        <trip id="29" depart="20.39" fromJunction="cluster_333094_4168070830_4171703355_4171703356_4171703358" toJunction="13862775"/>
        <trip id="30" depart="21.09" fromJunction="1473154588" toJunction="gneJ86"/>
        <trip id="31" depart="21.79" fromJunction="gneJ86" toJunction="13866113"/>
        <trip id="32" depart="22.50" fromJunction="333660" toJunction="13805129"/>
        <trip id="33" depart="23.20" fromJunction="cluster_126985_13861824_442584046" toJunction="475254178"/>
        <trip id="34" depart="23.90" fromJunction="475254177" toJunction="gneJ28"/>
        <trip id="35" depart="24.60" fromJunction="416581489" toJunction="1986779981"/>
        <trip id="36" depart="25.31" fromJunction="612237811" toJunction="16204693"/>
        <trip id="37" depart="26.01" fromJunction="cluster_381491_381492" toJunction="14387760"/>
        <trip id="38" depart="26.71" fromJunction="333636" toJunction="333070"/>
        <trip id="39" depart="27.42" fromJunction="cluster_1412174336_257159" toJunction="475254178"/>
        <trip id="40" depart="28.12" fromJunction="475254177" toJunction="17863753"/>
        <trip id="41" depart="28.82" fromJunction="13866113" toJunction="6623012259"/>
        <trip id="42" depart="29.53" fromJunction="471238768" toJunction="333095"/>
        <trip id="43" depart="30.23" fromJunction="14718744" toJunction="13889131"/>
        <trip id="44" depart="30.93" fromJunction="13866113" toJunction="6623012259"/>
        <trip id="45" depart="31.63" fromJunction="469370423" toJunction="333073"/>
        <trip id="46" depart="32.34" fromJunction="17863753" toJunction="gneJ29"/>
        <trip id="47" depart="33.04" fromJunction="gneJ86" toJunction="13866113"/>
        <trip id="48" depart="33.74" fromJunction="2032161695" toJunction="1762606077"/>
        <trip id="49" depart="34.45" fromJunction="416581489" toJunction="1986779981"/>
        <trip id="50" depart="35.15" fromJunction="2032126415" toJunction="381503"/>
        <trip id="51" depart="35.85" fromJunction="617142405" toJunction="1473154588"/>
        <trip id="52" depart="36.56" fromJunction="13862756" toJunction="1473154603"/>
        <trip id="53" depart="37.26" fromJunction="475254177" toJunction="253742"/>
        <trip id="54" depart="37.96" fromJunction="cluster_13862100_3577030728_3577030736_3577030740_3577030742" toJunction="380033"/>
        <trip id="55" depart="38.66" fromJunction="13866113" toJunction="6623012259"/>
        <trip id="56" depart="39.37" fromJunction="7682636959" toJunction="13804944"/>
        <trip id="57" depart="40.07" fromJunction="774075803" toJunction="14565807"/>
        <trip id="58" depart="40.77" fromJunction="907153673" toJunction="4625345126"/>
        <trip id="59" depart="41.48" fromJunction="333670" toJunction="13866113"/>
        <trip id="60" depart="42.18" fromJunction="253742" toJunction="333670"/>
        <trip id="61" depart="42.88" fromJunction="475254177" toJunction="17863753"/>
        <trip id="62" depart="43.59" fromJunction="13804995" toJunction="17863753"/>
        <trip id="63" depart="44.29" fromJunction="cluster_333094_4168070830_4171703355_4171703356_4171703358" toJunction="333073"/>
        <trip id="64" depart="44.99" fromJunction="cluster_379927_470453132" toJunction="1060160480"/>
        <trip id="65" depart="45.69" fromJunction="469370419" toJunction="13804984"/>
        <trip id="66" depart="46.40" fromJunction="380031" toJunction="cluster_1075355261_246810"/>
        <trip id="67" depart="47.10" fromJunction="13875355" toJunction="13866114"/>
        <trip id="68" depart="47.80" fromJunction="13862750" toJunction="13797704"/>
        <trip id="69" depart="48.51" fromJunction="cluster_333094_4168070830_4171703355_4171703356_4171703358" toJunction="cluster_443914196_4910563205_4910563207_7846562043"/>
        <trip id="70" depart="49.21" fromJunction="1473154556" toJunction="1060160480"/>
        <trip id="71" depart="49.91" fromJunction="522884479" toJunction="617142404"/>
        <trip id="72" depart="50.62" fromJunction="1473154573" toJunction="13866113"/>
        <trip id="73" depart="51.32" fromJunction="13875355" toJunction="gneJ27"/>
        <trip id="74" depart="52.02" fromJunction="17863753" toJunction="4056421432"/>
        <trip id="75" depart="52.72" fromJunction="381489" toJunction="379934"/>
        <trip id="76" depart="53.43" fromJunction="3283841023" toJunction="379928"/>
        <trip id="77" depart="54.13" fromJunction="cluster_381491_381492" toJunction="gneJ29"/>
        <trip id="78" depart="54.83" fromJunction="648487760" toJunction="379933"/>
        <trip id="79" depart="55.54" fromJunction="gneJ29" toJunction="13875355"/>
        <trip id="80" depart="56.24" fromJunction="333670" toJunction="7682636959"/>
        <trip id="81" depart="56.94" fromJunction="380031" toJunction="1473154587"/>
        <trip id="82" depart="57.64" fromJunction="4498382192" toJunction="gneJ65"/>
        <trip id="83" depart="58.35" fromJunction="14389032" toJunction="13804921"/>
        <trip id="84" depart="59.05" fromJunction="279487" toJunction="1552648217"/>
        <trip id="85" depart="59.75" fromJunction="13804944" toJunction="cluster_1075355261_246810"/>
        <trip id="86" depart="60.46" fromJunction="380033" toJunction="6623012259"/>
        <trip id="87" depart="61.16" fromJunction="381655" toJunction="14718720"/>
        <trip id="88" depart="61.86" fromJunction="381489" toJunction="1473154603"/>
        <trip id="89" depart="62.57" fromJunction="cluster_379927_470453132" toJunction="cluster_15729450_333085_333093_471232928"/>
        <trip id="90" depart="63.27" fromJunction="333660" toJunction="13805129"/>
        <trip id="91" depart="63.97" fromJunction="379921" toJunction="570812"/>
        <trip id="92" depart="64.67" fromJunction="380031" toJunction="cluster_1075355261_246810"/>
        <trip id="93" depart="65.38" fromJunction="333986" toJunction="471238768"/>
        <trip id="94" depart="66.08" fromJunction="13862775" toJunction="1986790389"/>
        <trip id="95" depart="66.78" fromJunction="13804921" toJunction="905000573"/>
        <trip id="96" depart="67.49" fromJunction="cluster_381491_381492" toJunction="gneJ29"/>
        <trip id="97" depart="68.19" fromJunction="13875355" toJunction="13866114"/>
        <trip id="98" depart="68.89" fromJunction="14718723" toJunction="gneJ63"/>
        <trip id="99" depart="69.60" fromJunction="13889131" toJunction="gneJ65"/>
        <trip id="100" depart="70.30" fromJunction="13862775" toJunction="13804996"/>
        <trip id="101" depart="71.00" fromJunction="279474" toJunction="13862762"/>
        <trip id="102" depart="71.70" fromJunction="cluster_4307149661_471431611" toJunction="5019889553"/>
        <trip id="103" depart="72.41" fromJunction="13866106" toJunction="gneJ67"/>
        <trip id="104" depart="73.11" fromJunction="333670" toJunction="14718710"/>
        <trip id="105" depart="73.81" fromJunction="13804946" toJunction="gneJ61"/>
        <trip id="106" depart="74.52" fromJunction="293792170" toJunction="13805129"/>
        <trip id="107" depart="75.22" fromJunction="3171233687" toJunction="13804913"/>
        <trip id="108" depart="75.92" fromJunction="17863757" toJunction="612237811"/>
        <trip id="109" depart="76.63" fromJunction="475254177" toJunction="17863753"/>
        <trip id="110" depart="77.33" fromJunction="cluster_288271135_288271373_333099_333108_443120943_555196291_740158974" toJunction="16204688"/>
        <trip id="111" depart="78.03" fromJunction="25679463" toJunction="cluster_333063_380066"/>
        <trip id="112" depart="78.73" fromJunction="gneJ29" toJunction="1473154603"/>
        <trip id="113" depart="79.44" fromJunction="470727824" toJunction="1473154582"/>
        <trip id="114" depart="80.14" fromJunction="13866113" toJunction="6623012259"/>
        <trip id="115" depart="80.84" fromJunction="416581489" toJunction="14718751"/>
        <trip id="116" depart="81.55" fromJunction="13804957" toJunction="13804945"/>
        <trip id="117" depart="82.25" fromJunction="471238768" toJunction="333095"/>
        <trip id="118" depart="82.95" fromJunction="907153673" toJunction="470453035"/>
        <trip id="119" depart="83.66" fromJunction="279482" toJunction="13866113"/>
        <trip id="120" depart="84.36" fromJunction="gneJ29" toJunction="13875355"/>
        <trip id="121" depart="85.06" fromJunction="13804988" toJunction="13889131"/>
        <trip id="122" depart="85.76" fromJunction="gneJ86" toJunction="13804950"/>
        <trip id="123" depart="86.47" fromJunction="4056421433" toJunction="381503"/>
        <trip id="124" depart="87.17" fromJunction="cluster_333094_4168070830_4171703355_4171703356_4171703358" toJunction="126719"/>
        <trip id="125" depart="87.87" fromJunction="126715" toJunction="gneJ65"/>
        <trip id="126" depart="88.58" fromJunction="253742" toJunction="1473154587"/>
        <trip id="127" depart="89.28" fromJunction="126714" toJunction="13866113"/>
        <trip id="128" depart="89.98" fromJunction="13862756" toJunction="7682636959"/>
        <trip id="129" depart="90.69" fromJunction="17863753" toJunction="126714"/>
        <trip id="130" depart="91.39" fromJunction="475254177" toJunction="gneJ28"/>
        <trip id="131" depart="92.09" fromJunction="cluster_1075355261_246810" toJunction="279482"/>
        <trip id="132" depart="92.79" fromJunction="cluster_1075355261_246810" toJunction="774075803"/>
        <trip id="133" depart="93.50" fromJunction="469370419" toJunction="cluster_1412174336_257159"/>
        <trip id="134" depart="94.20" fromJunction="cluster_333094_4168070830_4171703355_4171703356_4171703358" toJunction="4174192593"/>
        <trip id="135" depart="94.90" fromJunction="cluster_1412174336_257159" toJunction="gneJ86"/>
        <trip id="136" depart="95.61" fromJunction="gneJ28" toJunction="13862755"/>
        <trip id="137" depart="96.31" fromJunction="cluster_443914196_4910563205_4910563207_7846562043" toJunction="288270538"/>
        <trip id="138" depart="97.01" fromJunction="1473154609" toJunction="3171233692"/>
        <trip id="139" depart="97.72" fromJunction="gneJ87" toJunction="25251965"/>
        <trip id="140" depart="98.42" fromJunction="13866106" toJunction="gneJ67"/>
        <trip id="141" depart="99.12" fromJunction="4174192593" toJunction="279474"/>
        <trip id="142" depart="99.82" fromJunction="257158" toJunction="14718714"/>
        <trip id="143" depart="100.53" fromJunction="17863753" toJunction="1473154541"/>
        <trip id="144" depart="101.23" fromJunction="257158" toJunction="4058166352"/>
        <trip id="145" depart="101.93" fromJunction="379933" toJunction="17863752"/>
        <trip id="146" depart="102.64" fromJunction="1552648217" toJunction="4058166352"/>
        <trip id="147" depart="103.34" fromJunction="cluster_1070601793_1070601814_4316723365_5364217784" toJunction="cluster_14718707_338642"/>
        <trip id="148" depart="104.04" fromJunction="cluster_13862100_3577030728_3577030736_3577030740_3577030742" toJunction="380033"/>
        <trip id="149" depart="104.75" fromJunction="14718750" toJunction="17863756"/>
        <trip id="150" depart="105.45" fromJunction="13875355" toJunction="13866114"/>
        <trip id="151" depart="106.15" fromJunction="2443288744" toJunction="2585436390"/>
        <trip id="152" depart="106.85" fromJunction="126719" toJunction="612237811"/>
        <trip id="153" depart="107.56" fromJunction="612671359" toJunction="586381590"/>
        <trip id="154" depart="108.26" fromJunction="4058166352" toJunction="410480487"/>
        <trip id="155" depart="108.96" fromJunction="cluster_379927_470453132" toJunction="13862755"/>
        <trip id="156" depart="109.67" fromJunction="333636" toJunction="14718714"/>
        <trip id="157" depart="110.37" fromJunction="279482" toJunction="14718750"/>
        <trip id="158" depart="111.07" fromJunction="469370419" toJunction="279482"/>
        <trip id="159" depart="111.78" fromJunction="379926" toJunction="25251965"/>
        <trip id="160" depart="112.48" fromJunction="612671457" toJunction="379928"/>
        <trip id="161" depart="113.18" fromJunction="380031" toJunction="1473154587"/>
        <trip id="162" depart="113.88" fromJunction="279482" toJunction="4625345126"/>
        <trip id="163" depart="114.59" fromJunction="13862756" toJunction="368610171"/>
        <trip id="164" depart="115.29" fromJunction="333070" toJunction="522884479"/>
        <trip id="165" depart="115.99" fromJunction="gneJ65" toJunction="333670"/>
        <trip id="166" depart="116.70" fromJunction="cluster_379927_470453132" toJunction="246632"/>
        <trip id="167" depart="117.40" fromJunction="612671370" toJunction="648487760"/>
        <trip id="168" depart="118.10" fromJunction="333070" toJunction="gneJ82"/>
        <trip id="169" depart="118.80" fromJunction="cluster_333094_4168070830_4171703355_4171703356_4171703358" toJunction="13862781"/>
        <trip id="170" depart="119.51" fromJunction="cluster_443914196_4910563205_4910563207_7846562043" toJunction="288270538"/>
        <trip id="171" depart="120.21" fromJunction="13805129" toJunction="4625345126"/>
        <trip id="172" depart="120.91" fromJunction="cluster_13862782_279480" toJunction="cluster_1412174336_257159"/>
        <trip id="173" depart="121.62" fromJunction="13862756" toJunction="7682636959"/>
        <trip id="174" depart="122.32" fromJunction="380031" toJunction="2032161695"/>
        <trip id="175" depart="123.02" fromJunction="253742" toJunction="4056421433"/>
        <trip id="176" depart="123.73" fromJunction="612683561" toJunction="1473154541"/>
        <trip id="177" depart="124.43" fromJunction="475254177" toJunction="cluster_15729450_333085_333093_471232928"/>
        <trip id="178" depart="125.13" fromJunction="14718712" toJunction="13866113"/>
        <trip id="179" depart="125.83" fromJunction="14718712" toJunction="cluster_703516135_703516137"/>
        <trip id="180" depart="126.54" fromJunction="520792121" toJunction="13804988"/>
        <trip id="181" depart="127.24" fromJunction="cluster_379927_470453132" toJunction="cluster_15729450_333085_333093_471232928"/>
        <trip id="182" depart="127.94" fromJunction="469370419" toJunction="cluster_1412174336_257159"/>
        <trip id="183" depart="128.65" fromJunction="470453035" toJunction="333670"/>
        <trip id="184" depart="129.35" fromJunction="475254177" toJunction="4056448649"/>
        <trip id="185" depart="130.05" fromJunction="cluster_381491_381492" toJunction="gneJ29"/>
        <trip id="186" depart="130.76" fromJunction="13875355" toJunction="13866114"/>
        <trip id="187" depart="131.46" fromJunction="368610171" toJunction="cluster_1075355261_246810"/>
        <trip id="188" depart="132.16" fromJunction="13804913" toJunction="3171233682"/>
        <trip id="189" depart="132.86" fromJunction="14718712" toJunction="cluster_1412174336_257159"/>
        <trip id="190" depart="133.57" fromJunction="3171233697" toJunction="13804905"/>
        <trip id="191" depart="134.27" fromJunction="cluster_333094_4168070830_4171703355_4171703356_4171703358" toJunction="13862775"/>
        <trip id="192" depart="134.97" fromJunction="379932" toJunction="379928"/>
        <trip id="193" depart="135.68" fromJunction="333062" toJunction="cluster_14718711_368610177"/>
        <trip id="194" depart="136.38" fromJunction="381501" toJunction="gneJ37"/>
        <trip id="195" depart="137.08" fromJunction="25679464" toJunction="13875355"/>
        <trip id="196" depart="137.79" fromJunction="907153673" toJunction="4625345126"/>
        <trip id="197" depart="138.49" fromJunction="cluster_14718711_368610177" toJunction="gneJ72"/>
        <trip id="198" depart="139.19" fromJunction="cluster_288271135_288271373_333099_333108_443120943_555196291_740158974" toJunction="3841307299"/>
        <trip id="199" depart="139.89" fromJunction="13862750" toJunction="380033"/>
        <trip id="200" depart="140.60" fromJunction="1473154591" toJunction="13804935"/>
        <trip id="201" depart="141.30" fromJunction="617142405" toJunction="1473154588"/>
        <trip id="202" depart="142.00" fromJunction="1473154603" toJunction="6623012259"/>
        <trip id="203" depart="142.71" fromJunction="13862756" toJunction="7682636959"/>
        <trip id="204" depart="143.41" fromJunction="4058166352" toJunction="410480487"/>
        <trip id="205" depart="144.11" fromJunction="gneJ65" toJunction="471232901"/>
        <trip id="206" depart="144.82" fromJunction="475254178" toJunction="3171233682"/>
        <trip id="207" depart="145.52" fromJunction="333571" toJunction="471761118"/>
        <trip id="208" depart="146.22" fromJunction="cluster_4307149661_471431611" toJunction="380065"/>
        <trip id="209" depart="146.92" fromJunction="cluster_333094_4168070830_4171703355_4171703356_4171703358" toJunction="4174192593"/>
        <trip id="210" depart="147.63" fromJunction="cluster_15729450_333085_333093_471232928" toJunction="13875355"/>
        <trip id="211" depart="148.33" fromJunction="cluster_1070601793_1070601814_4316723365_5364217784" toJunction="6623012259"/>
        <trip id="212" depart="149.03" fromJunction="17863753" toJunction="1473154541"/>
        <trip id="213" depart="149.74" fromJunction="cluster_4307149661_471431611" toJunction="416581489"/>
        <trip id="214" depart="150.44" fromJunction="1552648217" toJunction="471232901"/>
        <trip id="215" depart="151.14" fromJunction="1473154588" toJunction="gneJ86"/>
        <trip id="216" depart="151.85" fromJunction="333986" toJunction="469370423"/>
        <trip id="217" depart="152.55" fromJunction="1473154603" toJunction="6623012259"/>
        <trip id="218" depart="153.25" fromJunction="gneJ29" toJunction="13875355"/>
        <trip id="219" depart="153.95" fromJunction="17863752" toJunction="1075355263"/>
        <trip id="220" depart="154.66" fromJunction="475254178" toJunction="13862764"/>
        <trip id="221" depart="155.36" fromJunction="13804984" toJunction="13804996"/>
        <trip id="222" depart="156.06" fromJunction="475254177" toJunction="cluster_13862782_279480"/>
        <trip id="223" depart="156.77" fromJunction="333571" toJunction="13862762"/>
        <trip id="224" depart="157.47" fromJunction="cluster_379927_470453132" toJunction="1473154588"/>
        <trip id="225" depart="158.17" fromJunction="cluster_333094_4168070830_4171703355_4171703356_4171703358" toJunction="cluster_443914196_4910563205_4910563207_7846562043"/>
        <trip id="226" depart="158.88" fromJunction="14718750" toJunction="cluster_471497440_5654827354_5654827355"/>
        <trip id="227" depart="159.58" fromJunction="cluster_1412174336_257159" toJunction="416581489"/>
        <trip id="228" depart="160.28" fromJunction="cluster_333094_4168070830_4171703355_4171703356_4171703358" toJunction="13862781"/>
        <trip id="229" depart="160.98" fromJunction="13862775" toJunction="cluster_13862782_279480"/>
        <trip id="230" depart="161.69" fromJunction="1473154588" toJunction="13866114"/>
        <trip id="231" depart="162.39" fromJunction="333636" toJunction="14718714"/>
        <trip id="232" depart="163.09" fromJunction="13866106" toJunction="1115426591"/>
        <trip id="233" depart="163.80" fromJunction="13804966" toJunction="17863756"/>
        <trip id="234" depart="164.50" fromJunction="1412174337" toJunction="381501"/>
        <trip id="235" depart="165.20" fromJunction="13875355" toJunction="13866114"/>
        <trip id="236" depart="165.91" fromJunction="380031" toJunction="cluster_1075355261_246810"/>
        <trip id="237" depart="166.61" fromJunction="617142404" toJunction="471238768"/>
        <trip id="238" depart="167.31" fromJunction="13862756" toJunction="7682636959"/>
        <trip id="239" depart="168.01" fromJunction="cluster_1412174336_257159" toJunction="475254178"/>
        <trip id="240" depart="168.72" fromJunction="13804984" toJunction="612237876"/>
        <trip id="241" depart="169.42" fromJunction="381501" toJunction="279481"/>
        <trip id="242" depart="170.12" fromJunction="907153673" toJunction="4625345126"/>
        <trip id="243" depart="170.83" fromJunction="333636" toJunction="333070"/>
        <trip id="244" depart="171.53" fromJunction="7817323883" toJunction="774075803"/>
        <trip id="245" depart="172.23" fromJunction="612671359" toJunction="567451084"/>
        <trip id="246" depart="172.93" fromJunction="cluster_1075355261_246810" toJunction="279482"/>
        <trip id="247" depart="173.64" fromJunction="13862756" toJunction="1473154603"/>
        <trip id="248" depart="174.34" fromJunction="gneJ66" toJunction="14718750"/>
        <trip id="249" depart="175.04" fromJunction="13866113" toJunction="6623012259"/>
        <trip id="250" depart="175.75" fromJunction="333660" toJunction="4056421432"/>
        <trip id="251" depart="176.45" fromJunction="gneJ7" toJunction="1060160480"/>
        <trip id="252" depart="177.15" fromJunction="14718712" toJunction="13866113"/>
        <trip id="253" depart="177.86" fromJunction="cluster_1075355261_246810" toJunction="279482"/>
        <trip id="254" depart="178.56" fromJunction="14718710" toJunction="cluster_13804917_13804919"/>
        <trip id="255" depart="179.26" fromJunction="380065" toJunction="333095"/>
        <trip id="256" depart="179.96" fromJunction="1473154603" toJunction="6623012259"/>
        <trip id="257" depart="180.67" fromJunction="13804988" toJunction="333070"/>
        <trip id="258" depart="181.37" fromJunction="13862756" toJunction="7682636959"/>
        <trip id="259" depart="182.07" fromJunction="1473154582" toJunction="cluster_703516135_703516137"/>
        <trip id="260" depart="182.78" fromJunction="25251965" toJunction="13862762"/>
        <trip id="261" depart="183.48" fromJunction="379926" toJunction="3283841023"/>
        <trip id="262" depart="184.18" fromJunction="766728493" toJunction="16204683"/>
        <trip id="263" depart="184.89" fromJunction="475254177" toJunction="2585436390"/>
        <trip id="264" depart="185.59" fromJunction="126983" toJunction="25282778"/>
        <trip id="265" depart="186.29" fromJunction="380031" toJunction="13862755"/>
        <trip id="266" depart="186.99" fromJunction="475254178" toJunction="3171233682"/>
        <trip id="267" depart="187.70" fromJunction="13862756" toJunction="4056448649"/>
        <trip id="268" depart="188.40" fromJunction="13804944" toJunction="333070"/>
        <trip id="269" depart="189.10" fromJunction="gneJ66" toJunction="cluster_15729450_333085_333093_471232928"/>
        <trip id="270" depart="189.81" fromJunction="13866113" toJunction="6623012259"/>
        <trip id="271" depart="190.51" fromJunction="13866113" toJunction="6623012259"/>
        <trip id="272" depart="191.21" fromJunction="gneJ29" toJunction="13875355"/>
        <trip id="273" depart="191.92" fromJunction="gneJ28" toJunction="13862762"/>
        <trip id="274" depart="192.62" fromJunction="3171233687" toJunction="cluster_471497440_5654827354_5654827355"/>
        <trip id="275" depart="193.32" fromJunction="13875355" toJunction="13866114"/>
        <trip id="276" depart="194.02" fromJunction="293792170" toJunction="520792121"/>
        <trip id="277" depart="194.73" fromJunction="380033" toJunction="gneJ65"/>
        <trip id="278" depart="195.43" fromJunction="3171233682" toJunction="288270538"/>
        <trip id="279" depart="196.13" fromJunction="381489" toJunction="13804946"/>
        <trip id="280" depart="196.84" fromJunction="333070" toJunction="gneJ29"/>
        <trip id="281" depart="197.54" fromJunction="380031" toJunction="13862748"/>
        <trip id="282" depart="198.24" fromJunction="14718712" toJunction="279484"/>
        <trip id="283" depart="198.95" fromJunction="13866113" toJunction="6623012259"/>
        <trip id="284" depart="199.65" fromJunction="279487" toJunction="907153673"/>
        <trip id="285" depart="200.35" fromJunction="13866113" toJunction="6623012259"/>
        <trip id="286" depart="201.05" fromJunction="333571" toJunction="471761118"/>
        <trip id="287" depart="201.76" fromJunction="333571" toJunction="471761118"/>
        <trip id="288" depart="202.46" fromJunction="cluster_381491_381492" toJunction="gneJ29"/>
        <trip id="289" depart="203.16" fromJunction="570812" toJunction="586381590"/>
        <trip id="290" depart="203.87" fromJunction="253742" toJunction="444902183"/>
        <trip id="291" depart="204.57" fromJunction="3171233697" toJunction="905000573"/>
        <trip id="292" depart="205.27" fromJunction="gneJ28" toJunction="1473154548"/>
        <trip id="293" depart="205.98" fromJunction="cluster_333094_4168070830_4171703355_4171703356_4171703358" toJunction="333073"/>
        <trip id="294" depart="206.68" fromJunction="3171233687" toJunction="17863752"/>
        <trip id="295" depart="207.38" fromJunction="7682636959" toJunction="13804944"/>
        <trip id="296" depart="208.08" fromJunction="379926" toJunction="3283841023"/>
        <trip id="297" depart="208.79" fromJunction="13875355" toJunction="13866114"/>
        <trip id="298" depart="209.49" fromJunction="381501" toJunction="470453035"/>
        <trip id="299" depart="210.19" fromJunction="gneJ29" toJunction="13875355"/>
        <trip id="300" depart="210.90" fromJunction="612683561" toJunction="cluster_126985_13861824_442584046"/>
        <trip id="301" depart="211.60" fromJunction="6623012259" toJunction="126714"/>
        <trip id="302" depart="212.30" fromJunction="cluster_4307149661_471431611" toJunction="13804905"/>
        <trip id="303" depart="213.01" fromJunction="gneJ87" toJunction="14389034"/>
        <trip id="304" depart="213.71" fromJunction="gneJ86" toJunction="1473154603"/>
        <trip id="305" depart="214.41" fromJunction="4058166352" toJunction="13797704"/>
        <trip id="306" depart="215.11" fromJunction="25251965" toJunction="13862762"/>
        <trip id="307" depart="215.82" fromJunction="380031" toJunction="567451085"/>
        <trip id="308" depart="216.52" fromJunction="612683561" toJunction="1473154541"/>
        <trip id="309" depart="217.22" fromJunction="379934" toJunction="cluster_443914196_4910563205_4910563207_7846562043"/>
        <trip id="310" depart="217.93" fromJunction="cluster_381491_381492" toJunction="246811"/>
        <trip id="311" depart="218.63" fromJunction="766728493" toJunction="1473154548"/>
        <trip id="312" depart="219.33" fromJunction="333105" toJunction="13804959"/>
        <trip id="313" depart="220.04" fromJunction="612683561" toJunction="1473154541"/>
        <trip id="314" depart="220.74" fromJunction="1473154572" toJunction="333670"/>
        <trip id="315" depart="221.44" fromJunction="380031" toJunction="1473154587"/>
        <trip id="316" depart="222.14" fromJunction="381489" toJunction="13804946"/>
        <trip id="317" depart="222.85" fromJunction="3171233697" toJunction="cluster_1412174336_257159"/>
        <trip id="318" depart="223.55" fromJunction="475254177" toJunction="253742"/>