<?xml version="1.0" encoding="UTF-8"?>

<!-- generated on 2022-04-27 11:37:46 by Eclipse SUMO netedit Version 1.10.0
<configuration xmlns:xsi="http://www.w3.org/2001/XMLSchema-instance" xsi:noNamespaceSchemaLocation="http://sumo.dlr.de/xsd/netconvertConfiguration.xsd">

    <input>
        <sumo-net-file value="C:\Users\sam\Documents\Work\Final%20Year\Dissertation\diss\Simulation\simple\ltn\old\ltnGrid.net.xml"/>
    </input>

    <output>
        <output-file value="C:\Users\sam\Documents\Work\Final%20Year\Dissertation\diss\Simulation\simple\ltn\old\ltnGrid.net.xml"/>
    </output>

    <processing>
        <geometry.min-radius.fix.railways value="false"/>
        <geometry.max-grade.fix value="false"/>
        <offset.disable-normalization value="true"/>
        <lefthand value="false"/>
    </processing>

    <junctions>
        <no-turnarounds value="true"/>
        <junctions.corner-detail value="5"/>
        <junctions.limit-turn-speed value="5.5"/>
        <rectangular-lane-cut value="false"/>
    </junctions>

    <pedestrian>
        <walkingareas value="false"/>
    </pedestrian>

    <report>
        <aggregate-warnings value="5"/>
    </report>

</configuration>
-->

<net version="1.9" junctionCornerDetail="5" limitTurnSpeed="5.50" xmlns:xsi="http://www.w3.org/2001/XMLSchema-instance" xsi:noNamespaceSchemaLocation="http://sumo.dlr.de/xsd/net_file.xsd">

    <location netOffset="0.00,0.00" convBoundary="-600.00,-800.00,300.00,100.00" origBoundary="-10000000000.00,-10000000000.00,10000000000.00,10000000000.00" projParameter="!"/>

    <edge id=":gneJ107_0" function="internal">
        <lane id=":gneJ107_0_0" index="0" speed="6.51" length="9.03" shape="198.40,-192.80 198.05,-195.25 197.00,-197.00 195.25,-198.05 192.80,-198.40"/>
    </edge>
    <edge id=":gneJ107_1" function="internal">
        <lane id=":gneJ107_1_0" index="0" speed="13.89" length="14.40" shape="198.40,-192.80 198.40,-207.20"/>
    </edge>
    <edge id=":gneJ107_2" function="internal">
        <lane id=":gneJ107_2_0" index="0" speed="13.89" length="14.40" shape="201.60,-207.20 201.60,-192.80"/>
    </edge>
    <edge id=":gneJ107_3" function="internal">
        <lane id=":gneJ107_3_0" index="0" speed="8.00" length="5.93" shape="201.60,-207.20 201.05,-203.35 200.00,-201.60"/>
    </edge>
    <edge id=":gneJ107_6" function="internal">
        <lane id=":gneJ107_6_0" index="0" speed="8.00" length="8.26" shape="200.00,-201.60 199.40,-200.60 196.65,-198.95 192.80,-198.40"/>
    </edge>
    <edge id=":gneJ107_4" function="internal">
        <lane id=":gneJ107_4_0" index="0" speed="6.51" length="9.03" shape="192.80,-201.60 195.25,-201.95 197.00,-203.00 198.05,-204.75 198.40,-207.20"/>
    </edge>
    <edge id=":gneJ107_5" function="internal">
        <lane id=":gneJ107_5_0" index="0" speed="8.00" length="14.19" shape="192.80,-201.60 196.65,-201.05 199.40,-199.40 201.05,-196.65 201.60,-192.80"/>
    </edge>
    <edge id=":gneJ108_0" function="internal">
        <lane id=":gneJ108_0_0" index="0" speed="13.89" length="14.40" shape="7.20,1.60 -7.20,1.60"/>
    </edge>
    <edge id=":gneJ108_1" function="internal">
        <lane id=":gneJ108_1_0" index="0" speed="8.00" length="5.93" shape="7.20,1.60 3.35,1.05 1.60,0.00"/>
    </edge>
    <edge id=":gneJ108_6" function="internal">
        <lane id=":gneJ108_6_0" index="0" speed="8.00" length="8.26" shape="1.60,0.00 0.60,-0.60 -1.05,-3.35 -1.60,-7.20"/>
    </edge>
    <edge id=":gneJ108_2" function="internal">
        <lane id=":gneJ108_2_0" index="0" speed="6.51" length="9.03" shape="1.60,-7.20 1.95,-4.75 3.00,-3.00 4.75,-1.95 7.20,-1.60"/>
    </edge>
    <edge id=":gneJ108_3" function="internal">
        <lane id=":gneJ108_3_0" index="0" speed="8.00" length="14.19" shape="1.60,-7.20 1.05,-3.35 -0.60,-0.60 -3.35,1.05 -7.20,1.60"/>
    </edge>
    <edge id=":gneJ108_4" function="internal">
        <lane id=":gneJ108_4_0" index="0" speed="6.51" length="9.03" shape="-7.20,-1.60 -4.75,-1.95 -3.00,-3.00 -1.95,-4.75 -1.60,-7.20"/>
    </edge>
    <edge id=":gneJ108_5" function="internal">
        <lane id=":gneJ108_5_0" index="0" speed="13.89" length="14.40" shape="-7.20,-1.60 7.20,-1.60"/>
    </edge>
    <edge id=":gneJ111_0" function="internal">
        <lane id=":gneJ111_0_0" index="0" speed="6.08" length="7.74" shape="-96.80,-398.40 -98.90,-398.70 -100.40,-399.60 -101.30,-401.10 -101.60,-403.20"/>
    </edge>
    <edge id=":gneJ111_1" function="internal">
        <lane id=":gneJ111_1_0" index="0" speed="3.90" length="2.58" shape="-98.40,-403.20 -98.30,-402.50 -98.00,-402.00 -97.50,-401.70 -96.80,-401.60"/>
    </edge>
    <edge id=":gneJ112_0" function="internal">
        <lane id=":gneJ112_0_0" index="0" speed="13.89" length="14.40" shape="7.20,-398.40 -7.20,-398.40"/>
    </edge>
    <edge id=":gneJ112_1" function="internal">
        <lane id=":gneJ112_1_0" index="0" speed="8.00" length="5.93" shape="7.20,-398.40 3.35,-398.95 1.60,-400.00"/>
    </edge>
    <edge id=":gneJ112_6" function="internal">
        <lane id=":gneJ112_6_0" index="0" speed="8.00" length="8.26" shape="1.60,-400.00 0.60,-400.60 -1.05,-403.35 -1.60,-407.20"/>
    </edge>
    <edge id=":gneJ112_2" function="internal">
        <lane id=":gneJ112_2_0" index="0" speed="6.51" length="9.03" shape="1.60,-407.20 1.95,-404.75 3.00,-403.00 4.75,-401.95 7.20,-401.60"/>
    </edge>
    <edge id=":gneJ112_3" function="internal">
        <lane id=":gneJ112_3_0" index="0" speed="8.00" length="14.19" shape="1.60,-407.20 1.05,-403.35 -0.60,-400.60 -3.35,-398.95 -7.20,-398.40"/>
    </edge>
    <edge id=":gneJ112_4" function="internal">
        <lane id=":gneJ112_4_0" index="0" speed="6.51" length="9.03" shape="-7.20,-401.60 -4.75,-401.95 -3.00,-403.00 -1.95,-404.75 -1.60,-407.20"/>
    </edge>
    <edge id=":gneJ112_5" function="internal">
        <lane id=":gneJ112_5_0" index="0" speed="13.89" length="14.40" shape="-7.20,-401.60 7.20,-401.60"/>
    </edge>
    <edge id=":gneJ113_0" function="internal">
        <lane id=":gneJ113_0_0" index="0" speed="6.08" length="7.74" shape="101.60,-403.20 101.30,-401.10 100.40,-399.60 98.90,-398.70 96.80,-398.40"/>
    </edge>
    <edge id=":gneJ113_1" function="internal">
        <lane id=":gneJ113_1_0" index="0" speed="3.90" length="2.58" shape="96.80,-401.60 97.50,-401.70 98.00,-402.00 98.30,-402.50 98.40,-403.20"/>
    </edge>
    <edge id=":gneJ114_0" function="internal">
        <lane id=":gneJ114_0_0" index="0" speed="6.51" length="9.03" shape="98.40,-492.80 98.05,-495.25 97.00,-497.00 95.25,-498.05 92.80,-498.40"/>
    </edge>
    <edge id=":gneJ114_1" function="internal">
        <lane id=":gneJ114_1_0" index="0" speed="13.89" length="14.40" shape="98.40,-492.80 98.40,-507.20"/>
    </edge>
    <edge id=":gneJ114_2" function="internal">
        <lane id=":gneJ114_2_0" index="0" speed="8.00" length="5.93" shape="98.40,-492.80 98.95,-496.65 100.00,-498.40"/>
    </edge>
    <edge id=":gneJ114_9" function="internal">
        <lane id=":gneJ114_9_0" index="0" speed="8.00" length="8.26" shape="100.00,-498.40 100.60,-499.40 103.35,-501.05 107.20,-501.60"/>
    </edge>
    <edge id=":gneJ114_3" function="internal">
        <lane id=":gneJ114_3_0" index="0" speed="6.51" length="9.03" shape="101.60,-507.20 101.95,-504.75 103.00,-503.00 104.75,-501.95 107.20,-501.60"/>
    </edge>
    <edge id=":gneJ114_4" function="internal">
        <lane id=":gneJ114_4_0" index="0" speed="13.89" length="14.40" shape="101.60,-507.20 101.60,-492.80"/>
    </edge>
    <edge id=":gneJ114_5" function="internal">
        <lane id=":gneJ114_5_0" index="0" speed="8.00" length="5.93" shape="101.60,-507.20 101.05,-503.35 100.00,-501.60"/>
    </edge>
    <edge id=":gneJ114_10" function="internal">
        <lane id=":gneJ114_10_0" index="0" speed="8.00" length="8.26" shape="100.00,-501.60 99.40,-500.60 96.65,-498.95 92.80,-498.40"/>
    </edge>
    <edge id=":gneJ114_6" function="internal">
        <lane id=":gneJ114_6_0" index="0" speed="6.51" length="9.03" shape="92.80,-501.60 95.25,-501.95 97.00,-503.00 98.05,-504.75 98.40,-507.20"/>
    </edge>
    <edge id=":gneJ114_7" function="internal">
        <lane id=":gneJ114_7_0" index="0" speed="13.89" length="14.40" shape="92.80,-501.60 107.20,-501.60"/>
    </edge>
    <edge id=":gneJ114_8" function="internal">
        <lane id=":gneJ114_8_0" index="0" speed="8.00" length="14.19" shape="92.80,-501.60 96.65,-501.05 99.40,-499.40 101.05,-496.65 101.60,-492.80"/>
    </edge>
    <edge id=":gneJ115_0" function="internal">
        <lane id=":gneJ115_0_0" index="0" speed="3.90" length="2.58" shape="98.40,-596.80 98.30,-597.50 98.00,-598.00 97.50,-598.30 96.80,-598.40"/>
    </edge>
    <edge id=":gneJ115_1" function="internal">
        <lane id=":gneJ115_1_0" index="0" speed="6.08" length="7.74" shape="96.80,-601.60 98.90,-601.30 100.40,-600.40 101.30,-598.90 101.60,-596.80"/>
    </edge>
    <edge id=":gneJ116_0" function="internal">
        <lane id=":gneJ116_0_0" index="0" speed="6.51" length="9.03" shape="-1.60,-592.80 -1.95,-595.25 -3.00,-597.00 -4.75,-598.05 -7.20,-598.40"/>
    </edge>
    <edge id=":gneJ116_1" function="internal">
        <lane id=":gneJ116_1_0" index="0" speed="13.89" length="14.40" shape="-1.60,-592.80 -1.60,-607.20"/>
    </edge>
    <edge id=":gneJ116_2" function="internal">
        <lane id=":gneJ116_2_0" index="0" speed="8.00" length="5.93" shape="-1.60,-592.80 -1.05,-596.65 0.00,-598.40"/>
    </edge>
    <edge id=":gneJ116_12" function="internal">
        <lane id=":gneJ116_12_0" index="0" speed="8.00" length="8.26" shape="0.00,-598.40 0.60,-599.40 3.35,-601.05 7.20,-601.60"/>
    </edge>
    <edge id=":gneJ116_3" function="internal">
        <lane id=":gneJ116_3_0" index="0" speed="6.51" length="9.03" shape="7.20,-598.40 4.75,-598.05 3.00,-597.00 1.95,-595.25 1.60,-592.80"/>
    </edge>
    <edge id=":gneJ116_4" function="internal">
        <lane id=":gneJ116_4_0" index="0" speed="13.89" length="14.40" shape="7.20,-598.40 -7.20,-598.40"/>
    </edge>
    <edge id=":gneJ116_5" function="internal">
        <lane id=":gneJ116_5_0" index="0" speed="8.00" length="14.19" shape="7.20,-598.40 3.35,-598.95 0.60,-600.60 -1.05,-603.35 -1.60,-607.20"/>
    </edge>
    <edge id=":gneJ116_6" function="internal">
        <lane id=":gneJ116_6_0" index="0" speed="6.51" length="9.03" shape="1.60,-607.20 1.95,-604.75 3.00,-603.00 4.75,-601.95 7.20,-601.60"/>
    </edge>
    <edge id=":gneJ116_7" function="internal">
        <lane id=":gneJ116_7_0" index="0" speed="13.89" length="14.40" shape="1.60,-607.20 1.60,-592.80"/>
    </edge>
    <edge id=":gneJ116_8" function="internal">
        <lane id=":gneJ116_8_0" index="0" speed="8.00" length="5.93" shape="1.60,-607.20 1.05,-603.35 -0.00,-601.60"/>
    </edge>
    <edge id=":gneJ116_13" function="internal">
        <lane id=":gneJ116_13_0" index="0" speed="8.00" length="8.26" shape="-0.00,-601.60 -0.60,-600.60 -3.35,-598.95 -7.20,-598.40"/>
    </edge>
    <edge id=":gneJ116_9" function="internal">
        <lane id=":gneJ116_9_0" index="0" speed="6.51" length="9.03" shape="-7.20,-601.60 -4.75,-601.95 -3.00,-603.00 -1.95,-604.75 -1.60,-607.20"/>
    </edge>
    <edge id=":gneJ116_10" function="internal">
        <lane id=":gneJ116_10_0" index="0" speed="13.89" length="14.40" shape="-7.20,-601.60 7.20,-601.60"/>
    </edge>
    <edge id=":gneJ116_11" function="internal">
        <lane id=":gneJ116_11_0" index="0" speed="8.00" length="14.19" shape="-7.20,-601.60 -3.35,-601.05 -0.60,-599.40 1.05,-596.65 1.60,-592.80"/>
    </edge>
    <edge id=":gneJ117_0" function="internal">
        <lane id=":gneJ117_0_0" index="0" speed="6.08" length="7.74" shape="-101.60,-596.80 -101.30,-598.90 -100.40,-600.40 -98.90,-601.30 -96.80,-601.60"/>
    </edge>
    <edge id=":gneJ117_1" function="internal">
        <lane id=":gneJ117_1_0" index="0" speed="3.90" length="2.58" shape="-96.80,-598.40 -97.50,-598.30 -98.00,-598.00 -98.30,-597.50 -98.40,-596.80"/>
    </edge>
    <edge id=":gneJ118_0" function="internal">
        <lane id=":gneJ118_0_0" index="0" speed="13.89" length="14.40" shape="-101.60,-492.80 -101.60,-507.20"/>
    </edge>
    <edge id=":gneJ118_1" function="internal">
        <lane id=":gneJ118_1_0" index="0" speed="8.00" length="5.93" shape="-101.60,-492.80 -101.05,-496.65 -100.00,-498.40"/>
    </edge>
    <edge id=":gneJ118_6" function="internal">
        <lane id=":gneJ118_6_0" index="0" speed="8.00" length="8.26" shape="-100.00,-498.40 -99.40,-499.40 -96.65,-501.05 -92.80,-501.60"/>
    </edge>
    <edge id=":gneJ118_2" function="internal">
        <lane id=":gneJ118_2_0" index="0" speed="6.51" length="9.03" shape="-92.80,-498.40 -95.25,-498.05 -97.00,-497.00 -98.05,-495.25 -98.40,-492.80"/>
    </edge>
    <edge id=":gneJ118_3" function="internal">
        <lane id=":gneJ118_3_0" index="0" speed="8.00" length="14.19" shape="-92.80,-498.40 -96.65,-498.95 -99.40,-500.60 -101.05,-503.35 -101.60,-507.20"/>
    </edge>
    <edge id=":gneJ118_4" function="internal">
        <lane id=":gneJ118_4_0" index="0" speed="6.51" length="9.03" shape="-98.40,-507.20 -98.05,-504.75 -97.00,-503.00 -95.25,-501.95 -92.80,-501.60"/>
    </edge>
    <edge id=":gneJ118_5" function="internal">
        <lane id=":gneJ118_5_0" index="0" speed="13.89" length="14.40" shape="-98.40,-507.20 -98.40,-492.80"/>
    </edge>
    <edge id=":gneJ119_0" function="internal">
        <lane id=":gneJ119_0_0" index="0" speed="6.51" length="9.03" shape="-1.60,-492.80 -1.95,-495.25 -3.00,-497.00 -4.75,-498.05 -7.20,-498.40"/>
    </edge>
    <edge id=":gneJ119_1" function="internal">
        <lane id=":gneJ119_1_0" index="0" speed="13.89" length="14.40" shape="-1.60,-492.80 -1.60,-507.20"/>
    </edge>
    <edge id=":gneJ119_2" function="internal">
        <lane id=":gneJ119_2_0" index="0" speed="8.00" length="5.93" shape="-1.60,-492.80 -1.05,-496.65 -0.00,-498.40"/>
    </edge>
    <edge id=":gneJ119_12" function="internal">
        <lane id=":gneJ119_12_0" index="0" speed="8.00" length="8.26" shape="-0.00,-498.40 0.60,-499.40 3.35,-501.05 7.20,-501.60"/>
    </edge>
    <edge id=":gneJ119_3" function="internal">
        <lane id=":gneJ119_3_0" index="0" speed="6.51" length="9.03" shape="7.20,-498.40 4.75,-498.05 3.00,-497.00 1.95,-495.25 1.60,-492.80"/>
    </edge>
    <edge id=":gneJ119_4" function="internal">
        <lane id=":gneJ119_4_0" index="0" speed="13.89" length="14.40" shape="7.20,-498.40 -7.20,-498.40"/>
    </edge>
    <edge id=":gneJ119_5" function="internal">
        <lane id=":gneJ119_5_0" index="0" speed="8.00" length="14.19" shape="7.20,-498.40 3.35,-498.95 0.60,-500.60 -1.05,-503.35 -1.60,-507.20"/>
    </edge>
    <edge id=":gneJ119_6" function="internal">
        <lane id=":gneJ119_6_0" index="0" speed="6.51" length="9.03" shape="1.60,-507.20 1.95,-504.75 3.00,-503.00 4.75,-501.95 7.20,-501.60"/>
    </edge>
    <edge id=":gneJ119_7" function="internal">
        <lane id=":gneJ119_7_0" index="0" speed="13.89" length="14.40" shape="1.60,-507.20 1.60,-492.80"/>
    </edge>
    <edge id=":gneJ119_8" function="internal">
        <lane id=":gneJ119_8_0" index="0" speed="8.00" length="5.93" shape="1.60,-507.20 1.05,-503.35 0.00,-501.60"/>
    </edge>
    <edge id=":gneJ119_13" function="internal">
        <lane id=":gneJ119_13_0" index="0" speed="8.00" length="8.26" shape="0.00,-501.60 -0.60,-500.60 -3.35,-498.95 -7.20,-498.40"/>
    </edge>
    <edge id=":gneJ119_9" function="internal">
        <lane id=":gneJ119_9_0" index="0" speed="6.51" length="9.03" shape="-7.20,-501.60 -4.75,-501.95 -3.00,-503.00 -1.95,-504.75 -1.60,-507.20"/>
    </edge>
    <edge id=":gneJ119_10" function="internal">
        <lane id=":gneJ119_10_0" index="0" speed="13.89" length="14.40" shape="-7.20,-501.60 7.20,-501.60"/>
    </edge>
    <edge id=":gneJ119_11" function="internal">
        <lane id=":gneJ119_11_0" index="0" speed="8.00" length="14.19" shape="-7.20,-501.60 -3.35,-501.05 -0.60,-499.40 1.05,-496.65 1.60,-492.80"/>
    </edge>
    <edge id=":gneJ121_0" function="internal">
        <lane id=":gneJ121_0_0" index="0" speed="6.51" length="9.03" shape="-1.60,-692.80 -1.95,-695.25 -3.00,-697.00 -4.75,-698.05 -7.20,-698.40"/>
    </edge>
    <edge id=":gneJ121_1" function="internal">
        <lane id=":gneJ121_1_0" index="0" speed="8.00" length="14.19" shape="-1.60,-692.80 -1.05,-696.65 0.60,-699.40 3.35,-701.05 7.20,-701.60"/>
    </edge>
    <edge id=":gneJ121_2" function="internal">
        <lane id=":gneJ121_2_0" index="0" speed="6.51" length="9.03" shape="7.20,-698.40 4.75,-698.05 3.00,-697.00 1.95,-695.25 1.60,-692.80"/>
    </edge>
    <edge id=":gneJ121_3" function="internal">
        <lane id=":gneJ121_3_0" index="0" speed="13.89" length="14.40" shape="7.20,-698.40 -7.20,-698.40"/>
    </edge>
    <edge id=":gneJ121_4" function="internal">
        <lane id=":gneJ121_4_0" index="0" speed="13.89" length="14.40" shape="-7.20,-701.60 7.20,-701.60"/>
    </edge>
    <edge id=":gneJ121_5" function="internal">
        <lane id=":gneJ121_5_0" index="0" speed="8.00" length="5.93" shape="-7.20,-701.60 -3.35,-701.05 -1.60,-700.00"/>
    </edge>
    <edge id=":gneJ121_6" function="internal">
        <lane id=":gneJ121_6_0" index="0" speed="8.00" length="8.26" shape="-1.60,-700.00 -0.60,-699.40 1.05,-696.65 1.60,-692.80"/>
    </edge>
    <edge id=":gneJ122_0" function="internal">
        <lane id=":gneJ122_0_0" index="0" speed="6.51" length="9.03" shape="198.40,-492.80 198.05,-495.25 197.00,-497.00 195.25,-498.05 192.80,-498.40"/>
    </edge>
    <edge id=":gneJ122_1" function="internal">
        <lane id=":gneJ122_1_0" index="0" speed="13.89" length="14.40" shape="198.40,-492.80 198.40,-507.20"/>
    </edge>
    <edge id=":gneJ122_2" function="internal">
        <lane id=":gneJ122_2_0" index="0" speed="13.89" length="14.40" shape="201.60,-507.20 201.60,-492.80"/>
    </edge>
    <edge id=":gneJ122_3" function="internal">
        <lane id=":gneJ122_3_0" index="0" speed="8.00" length="5.93" shape="201.60,-507.20 201.05,-503.35 200.00,-501.60"/>
    </edge>
    <edge id=":gneJ122_6" function="internal">
        <lane id=":gneJ122_6_0" index="0" speed="8.00" length="8.26" shape="200.00,-501.60 199.40,-500.60 196.65,-498.95 192.80,-498.40"/>
    </edge>
    <edge id=":gneJ122_4" function="internal">
        <lane id=":gneJ122_4_0" index="0" speed="6.51" length="9.03" shape="192.80,-501.60 195.25,-501.95 197.00,-503.00 198.05,-504.75 198.40,-507.20"/>
    </edge>
    <edge id=":gneJ122_5" function="internal">
        <lane id=":gneJ122_5_0" index="0" speed="8.00" length="14.19" shape="192.80,-501.60 196.65,-501.05 199.40,-499.40 201.05,-496.65 201.60,-492.80"/>
    </edge>
    <edge id=":gneJ125_0" function="internal">
        <lane id=":gneJ125_0_0" index="0" speed="13.89" length="14.40" shape="-292.80,1.60 -307.20,1.60"/>
    </edge>
    <edge id=":gneJ125_1" function="internal">
        <lane id=":gneJ125_1_0" index="0" speed="8.00" length="5.93" shape="-292.80,1.60 -296.65,1.05 -298.40,0.00"/>
    </edge>
    <edge id=":gneJ125_2" function="internal">
        <lane id=":gneJ125_2_0" index="0" speed="8.00" length="5.93" shape="-292.80,1.60 -296.65,1.05 -298.40,0.00"/>
    </edge>
    <edge id=":gneJ125_12" function="internal">
        <lane id=":gneJ125_12_0" index="0" speed="8.00" length="8.26" shape="-298.40,0.00 -299.40,-0.60 -301.05,-3.35 -301.60,-7.20"/>
    </edge>
    <edge id=":gneJ125_13" function="internal">
        <lane id=":gneJ125_13_0" index="0" speed="8.00" length="8.26" shape="-298.40,0.00 -299.40,-0.60 -301.05,-3.35 -301.60,-7.20"/>
    </edge>
    <edge id=":gneJ125_3" function="internal">
        <lane id=":gneJ125_3_0" index="0" speed="6.51" length="9.03" shape="-298.40,-7.20 -298.05,-4.75 -297.00,-3.00 -295.25,-1.95 -292.80,-1.60"/>
    </edge>
    <edge id=":gneJ125_4" function="internal">
        <lane id=":gneJ125_4_0" index="0" speed="7.80" length="13.44" shape="-298.40,-7.20 -299.19,-4.07 -301.24,-1.24 -304.07,0.81 -307.20,1.60"/>
    </edge>
    <edge id=":gneJ125_5" function="internal">
        <lane id=":gneJ125_5_0" index="0" speed="3.24" length="3.20" shape="-298.40,-7.20 -301.60,-7.20"/>
    </edge>
    <edge id=":gneJ125_6" function="internal">
        <lane id=":gneJ125_6_0" index="0" speed="6.51" length="9.03" shape="-298.40,-7.20 -298.05,-4.75 -297.00,-3.00 -295.25,-1.95 -292.80,-1.60"/>
    </edge>
    <edge id=":gneJ125_7" function="internal">
        <lane id=":gneJ125_7_0" index="0" speed="8.00" length="14.19" shape="-298.40,-7.20 -298.95,-3.35 -300.60,-0.60 -303.35,1.05 -307.20,1.60"/>
    </edge>
    <edge id=":gneJ125_8" function="internal">
        <lane id=":gneJ125_8_0" index="0" speed="3.24" length="3.20" shape="-298.40,-7.20 -301.60,-7.20"/>
    </edge>
    <edge id=":gneJ125_9" function="internal">
        <lane id=":gneJ125_9_0" index="0" speed="6.51" length="9.03" shape="-307.20,-1.60 -304.75,-1.95 -303.00,-3.00 -301.95,-4.75 -301.60,-7.20"/>
    </edge>
    <edge id=":gneJ125_10" function="internal">
        <lane id=":gneJ125_10_0" index="0" speed="6.51" length="9.03" shape="-307.20,-1.60 -304.75,-1.95 -303.00,-3.00 -301.95,-4.75 -301.60,-7.20"/>
    </edge>
    <edge id=":gneJ125_11" function="internal">
        <lane id=":gneJ125_11_0" index="0" speed="13.89" length="14.40" shape="-307.20,-1.60 -292.80,-1.60"/>
    </edge>
    <edge id=":gneJ126_0" function="internal">
        <lane id=":gneJ126_0_0" index="0" speed="6.51" length="9.03" shape="-301.60,-92.80 -301.95,-95.25 -303.00,-97.00 -304.75,-98.05 -307.20,-98.40"/>
    </edge>
    <edge id=":gneJ126_1" function="internal">
        <lane id=":gneJ126_1_0" index="0" speed="13.89" length="14.40" shape="-301.60,-92.80 -301.60,-107.20"/>
    </edge>
    <edge id=":gneJ126_2" function="internal">
        <lane id=":gneJ126_2_0" index="0" speed="8.00" length="5.93" shape="-301.60,-92.80 -301.05,-96.65 -300.00,-98.40"/>
    </edge>
    <edge id=":gneJ126_12" function="internal">
        <lane id=":gneJ126_12_0" index="0" speed="8.00" length="8.26" shape="-300.00,-98.40 -299.40,-99.40 -296.65,-101.05 -292.80,-101.60"/>
    </edge>
    <edge id=":gneJ126_3" function="internal">
        <lane id=":gneJ126_3_0" index="0" speed="6.51" length="9.03" shape="-292.80,-98.40 -295.25,-98.05 -297.00,-97.00 -298.05,-95.25 -298.40,-92.80"/>
    </edge>
    <edge id=":gneJ126_4" function="internal">
        <lane id=":gneJ126_4_0" index="0" speed="13.89" length="14.40" shape="-292.80,-98.40 -307.20,-98.40"/>
    </edge>
    <edge id=":gneJ126_5" function="internal">
        <lane id=":gneJ126_5_0" index="0" speed="8.00" length="14.19" shape="-292.80,-98.40 -296.65,-98.95 -299.40,-100.60 -301.05,-103.35 -301.60,-107.20"/>
    </edge>
    <edge id=":gneJ126_6" function="internal">
        <lane id=":gneJ126_6_0" index="0" speed="6.51" length="9.03" shape="-298.40,-107.20 -298.05,-104.75 -297.00,-103.00 -295.25,-101.95 -292.80,-101.60"/>
    </edge>
    <edge id=":gneJ126_7" function="internal">
        <lane id=":gneJ126_7_0" index="0" speed="13.89" length="14.40" shape="-298.40,-107.20 -298.40,-92.80"/>
    </edge>
    <edge id=":gneJ126_8" function="internal">
        <lane id=":gneJ126_8_0" index="0" speed="8.00" length="5.93" shape="-298.40,-107.20 -298.95,-103.35 -300.00,-101.60"/>
    </edge>
    <edge id=":gneJ126_13" function="internal">
        <lane id=":gneJ126_13_0" index="0" speed="8.00" length="8.26" shape="-300.00,-101.60 -300.60,-100.60 -303.35,-98.95 -307.20,-98.40"/>
    </edge>
    <edge id=":gneJ126_9" function="internal">
        <lane id=":gneJ126_9_0" index="0" speed="6.51" length="9.03" shape="-307.20,-101.60 -304.75,-101.95 -303.00,-103.00 -301.95,-104.75 -301.60,-107.20"/>
    </edge>
    <edge id=":gneJ126_10" function="internal">
        <lane id=":gneJ126_10_0" index="0" speed="13.89" length="14.40" shape="-307.20,-101.60 -292.80,-101.60"/>
    </edge>
    <edge id=":gneJ126_11" function="internal">
        <lane id=":gneJ126_11_0" index="0" speed="8.00" length="14.19" shape="-307.20,-101.60 -303.35,-101.05 -300.60,-99.40 -298.95,-96.65 -298.40,-92.80"/>
    </edge>
    <edge id=":gneJ127_0" function="internal">
        <lane id=":gneJ127_0_0" index="0" speed="6.08" length="7.74" shape="-396.80,-98.40 -398.90,-98.70 -400.40,-99.60 -401.30,-101.10 -401.60,-103.20"/>
    </edge>
    <edge id=":gneJ127_1" function="internal">
        <lane id=":gneJ127_1_0" index="0" speed="3.90" length="2.58" shape="-398.40,-103.20 -398.30,-102.50 -398.00,-102.00 -397.50,-101.70 -396.80,-101.60"/>
    </edge>
    <edge id=":gneJ128_0" function="internal">
        <lane id=":gneJ128_0_0" index="0" speed="6.51" length="9.03" shape="-401.60,-192.80 -401.95,-195.25 -403.00,-197.00 -404.75,-198.05 -407.20,-198.40"/>
    </edge>
    <edge id=":gneJ128_1" function="internal">
        <lane id=":gneJ128_1_0" index="0" speed="13.89" length="14.40" shape="-401.60,-192.80 -401.60,-207.20"/>
    </edge>
    <edge id=":gneJ128_2" function="internal">
        <lane id=":gneJ128_2_0" index="0" speed="8.00" length="5.93" shape="-401.60,-192.80 -401.05,-196.65 -400.00,-198.40"/>
    </edge>
    <edge id=":gneJ128_12" function="internal">
        <lane id=":gneJ128_12_0" index="0" speed="8.00" length="8.26" shape="-400.00,-198.40 -399.40,-199.40 -396.65,-201.05 -392.80,-201.60"/>
    </edge>
    <edge id=":gneJ128_3" function="internal">
        <lane id=":gneJ128_3_0" index="0" speed="6.51" length="9.03" shape="-392.80,-198.40 -395.25,-198.05 -397.00,-197.00 -398.05,-195.25 -398.40,-192.80"/>
    </edge>
    <edge id=":gneJ128_4" function="internal">
        <lane id=":gneJ128_4_0" index="0" speed="13.89" length="14.40" shape="-392.80,-198.40 -407.20,-198.40"/>
    </edge>
    <edge id=":gneJ128_5" function="internal">
        <lane id=":gneJ128_5_0" index="0" speed="8.00" length="14.19" shape="-392.80,-198.40 -396.65,-198.95 -399.40,-200.60 -401.05,-203.35 -401.60,-207.20"/>
    </edge>
    <edge id=":gneJ128_6" function="internal">
        <lane id=":gneJ128_6_0" index="0" speed="6.51" length="9.03" shape="-398.40,-207.20 -398.05,-204.75 -397.00,-203.00 -395.25,-201.95 -392.80,-201.60"/>
    </edge>
    <edge id=":gneJ128_7" function="internal">
        <lane id=":gneJ128_7_0" index="0" speed="13.89" length="14.40" shape="-398.40,-207.20 -398.40,-192.80"/>
    </edge>
    <edge id=":gneJ128_8" function="internal">
        <lane id=":gneJ128_8_0" index="0" speed="8.00" length="5.93" shape="-398.40,-207.20 -398.95,-203.35 -400.00,-201.60"/>
    </edge>
    <edge id=":gneJ128_13" function="internal">
        <lane id=":gneJ128_13_0" index="0" speed="8.00" length="8.26" shape="-400.00,-201.60 -400.60,-200.60 -403.35,-198.95 -407.20,-198.40"/>
    </edge>
    <edge id=":gneJ128_9" function="internal">
        <lane id=":gneJ128_9_0" index="0" speed="6.51" length="9.03" shape="-407.20,-201.60 -404.75,-201.95 -403.00,-203.00 -401.95,-204.75 -401.60,-207.20"/>
    </edge>
    <edge id=":gneJ128_10" function="internal">
        <lane id=":gneJ128_10_0" index="0" speed="13.89" length="14.40" shape="-407.20,-201.60 -392.80,-201.60"/>
    </edge>
    <edge id=":gneJ128_11" function="internal">
        <lane id=":gneJ128_11_0" index="0" speed="8.00" length="14.19" shape="-407.20,-201.60 -403.35,-201.05 -400.60,-199.40 -398.95,-196.65 -398.40,-192.80"/>
    </edge>
    <edge id=":gneJ129_0" function="internal">
        <lane id=":gneJ129_0_0" index="0" speed="6.08" length="7.74" shape="-401.60,-296.80 -401.30,-298.90 -400.40,-300.40 -398.90,-301.30 -396.80,-301.60"/>
    </edge>
    <edge id=":gneJ129_1" function="internal">
        <lane id=":gneJ129_1_0" index="0" speed="3.90" length="2.58" shape="-396.80,-298.40 -397.50,-298.30 -398.00,-298.00 -398.30,-297.50 -398.40,-296.80"/>
    </edge>
    <edge id=":gneJ130_0" function="internal">
        <lane id=":gneJ130_0_0" index="0" speed="6.51" length="9.03" shape="-301.60,-292.80 -301.95,-295.25 -303.00,-297.00 -304.75,-298.05 -307.20,-298.40"/>
    </edge>
    <edge id=":gneJ130_1" function="internal">
        <lane id=":gneJ130_1_0" index="0" speed="8.00" length="14.19" shape="-301.60,-292.80 -301.05,-296.65 -299.40,-299.40 -296.65,-301.05 -292.80,-301.60"/>
    </edge>
    <edge id=":gneJ130_2" function="internal">
        <lane id=":gneJ130_2_0" index="0" speed="6.51" length="9.03" shape="-292.80,-298.40 -295.25,-298.05 -297.00,-297.00 -298.05,-295.25 -298.40,-292.80"/>
    </edge>
    <edge id=":gneJ130_3" function="internal">
        <lane id=":gneJ130_3_0" index="0" speed="13.89" length="14.40" shape="-292.80,-298.40 -307.20,-298.40"/>
    </edge>
    <edge id=":gneJ130_4" function="internal">
        <lane id=":gneJ130_4_0" index="0" speed="13.89" length="14.40" shape="-307.20,-301.60 -292.80,-301.60"/>
    </edge>
    <edge id=":gneJ130_5" function="internal">
        <lane id=":gneJ130_5_0" index="0" speed="8.00" length="5.93" shape="-307.20,-301.60 -303.35,-301.05 -301.60,-300.00"/>
    </edge>
    <edge id=":gneJ130_6" function="internal">
        <lane id=":gneJ130_6_0" index="0" speed="8.00" length="8.26" shape="-301.60,-300.00 -300.60,-299.40 -298.95,-296.65 -298.40,-292.80"/>
    </edge>
    <edge id=":gneJ131_0" function="internal">
        <lane id=":gneJ131_0_0" index="0" speed="3.90" length="2.58" shape="-201.60,-296.80 -201.70,-297.50 -202.00,-298.00 -202.50,-298.30 -203.20,-298.40"/>
    </edge>
    <edge id=":gneJ131_1" function="internal">
        <lane id=":gneJ131_1_0" index="0" speed="6.08" length="7.74" shape="-203.20,-301.60 -201.10,-301.30 -199.60,-300.40 -198.70,-298.90 -198.40,-296.80"/>
    </edge>
    <edge id=":gneJ132_0" function="internal">
        <lane id=":gneJ132_0_0" index="0" speed="6.51" length="9.03" shape="-201.60,-192.80 -201.95,-195.25 -203.00,-197.00 -204.75,-198.05 -207.20,-198.40"/>
    </edge>
    <edge id=":gneJ132_1" function="internal">
        <lane id=":gneJ132_1_0" index="0" speed="13.89" length="14.40" shape="-201.60,-192.80 -201.60,-207.20"/>
    </edge>
    <edge id=":gneJ132_2" function="internal">