<?xml version="1.0" encoding="UTF-8"?>
<!-- generated on 2022-05-10 16:04:10.007263 by $Id$ UNKNOWN
  options: -r routes/basicRoutes.rou.xml -d countData.xml -o routes/countRoutes.rou.xml <doubleminus>weighted -u countDis <doubleminus>optimize full
-->
<routes xmlns:xsi="http://www.w3.org/2001/XMLSchema-instance" xsi:noNamespaceSchemaLocation="http://sumo.dlr.de/xsd/routes_file.xsd">
<!-- begin="0.0" end="3600.0" -->
    <routeDistribution id="countDis">
        <route id="24" edges="-133875226#0 -3381569#3 94820#0 133875252#0 133875252#3 133875256#0 133875255 4338449#0 4357619 133875223#0 133875223#1 133875223#3 gneE82 133875223#6 133875223#11 133875223#17 984881209 37777462 55290809#0 3441738#0" probability="2"/>
        <route id="25" edges="-133875226#0 -3381569#3 94820#0 133875252#0 133875252#3 133875256#0 133875255 4338449#0 4357619 133875223#0 133875223#1 133875223#3 gneE82 133875223#6 133875223#11 133875223#17 984881209 37777462 55290809#0 3441738#0 55290801 4236439#0 4236439#1" probability="2"/>
        <route id="26" edges="-133875226#0 -3381569#3 94820#0 133875252#0 133875252#3 133875256#0 133875255 4338449#0 4357619 133875223#0 133875223#1 133875223#3 gneE82 133875223#6 133875223#11 133875223#17 984881209 37777462 55290809#0 3441738#0 55290801 4236439#0 4236439#1 3441067#0 -203240967#2 -198245314#0 3609801#1 -39348547#2 39348546#0 52573118#0 2755#0" probability="4"/>
        <route id="39" edges="-133875226#2 -133875226#0 -3381569#3 94820#0 133875252#0 133875252#3 133875256#0 133875255 4338449#0 4357619 133875223#0 133875223#1 133875223#3 gneE82 133875223#6 133875223#11 133875223#17 984881209 37777462 55290809#0" probability="9"/>
        <route id="40" edges="-133875226#2 -133875226#0 -3381569#3 94820#0 133875252#0 133875252#3 133875256#0 133875255 4338449#0 4357619 133875223#0 133875223#1 133875223#3 gneE82 133875223#6 133875223#11 133875223#17 984881209 37777462 55290809#0 3441738#0 55290801 4236439#0 4236439#1 3441067#0 -203240967#2 -198245314#0 3609801#1 -39348547#2 39348546#0 52573118#0 2755#0 48207220 52573120 55290813#0" probability="2"/>
        <route id="48" edges="-133875229 -180869463#1 -133875249#2 -133875226#2 -133875226#0 -3381569#3 94820#0 133875252#0 133875252#3 133875256#0 133875255 4338449#0 4357619 133875223#0 133875223#1 133875223#3 gneE82 133875223#6 133875223#11 133875223#17 984881209 37777462 55290809#0 3441738#0 55290801 4236439#0 4236439#1 3441067#0 -203240967#2 -198245314#0 3609801#1 -39348547#2 39348546#0" probability="1"/>
        <route id="49" edges="-133875229 -180869463#1 -133875249#2 -133875226#2 -133875226#0 -3381569#3 94820#0 133875252#0 133875252#3 133875256#0 133875255 4338449#0 4357619 133875223#0 133875223#1 133875223#3 gneE82 133875223#6 133875223#11 133875223#17 984881209 37777462 55290809#0 3441738#0 55290801 4236439#0 4236439#1 3441067#0 -203240967#2 -198245314#0 3609801#1 -39348547#2 39348546#0 52573118#0 2755#0 48207220 52573120 55290813#0 -4279571" probability="1"/>
        <route id="50" edges="-133875229 -180869463#1 -133875249#2 -133875226#2 -133875226#0 -3381569#3 94820#0 133875252#0 133875252#3 133875256#0 133875255 4338449#0 4357619 133875223#0 133875223#1 133875223#3 gneE82 133875223#6 133875223#11 133875223#17 984881209 37777462 55290809#0 3441738#0 55290801 4236439#0 4236439#1 3441067#0 -203240967#2 -198245314#0 3609801#1 -39348547#2 50842685#0 -26738340#3" probability="2"/>
        <route id="65" edges="-133875236#1 -133875229 -180869463#1 -133875249#2 -133875226#2 -133875226#0 -3381569#3 94820#0 133875252#0 133875252#3 133875256#0 133875255 4338449#0 4357619 133875223#0 133875223#1 133875223#3 gneE82 133875223#6 133875223#11 133875223#17 984881209 37777462 55290809#0 3441738#0 55290801 4236439#0 4236439#1 3441067#0" probability="2"/>
        <route id="66" edges="-133875236#1 -133875229 -180869463#1 -133875249#2 -133875226#2 -133875226#0 -3381569#3 94820#0 133875252#0 133875252#3 133875256#0 133875255 4338449#0 4357619 133875223#0 133875223#1 133875223#3 gneE82 133875223#6 133875223#11 133875223#17 984881209 37777462 55290809#0 3441738#0 55290801 4236439#0 4236439#1 3441067#0 -203240967#2 -198245314#0 -26312537#4" probability="3"/>
        <route id="68" edges="-133875236#1 -133875229 -180869463#1 -133875249#2 -133875226#2 -133875226#0 -3381569#3 94820#0 133875252#0 133875252#3 133875256#0 133875255 4338449#0 4357619 133875223#0 133875223#1 133875223#3 gneE82 133875223#6 133875223#11 133875223#17 984881209 37777462 55290809#0 3441738#0 55290801 4236439#0 4236439#1 3441067#0 -203240967#2 -198245314#0 3609801#1 -39348547#2" probability="1"/>
        <route id="75" edges="-133875236#3 -133875236#1 -133875229 -180869463#1 -133875249#2 -133875226#2 -133875226#0 -3381569#3 94820#0 133875252#0 133875252#3 133875256#0 133875255 4338449#0 4357619 133875223#0 133875223#1 133875223#3 gneE82 133875223#6 133875223#11 133875223#17 984881209 37777462 55290809#0 3441738#0 55290801 4236439#0 4236439#1 3441067#0 -203240967#2 -198245314#0 -26312537#4 3058153" probability="1"/>
        <route id="76" edges="-133875236#3 -133875236#1 -133875229 -180869463#1 -133875249#2 -133875226#2 -133875226#0 -3381569#3 94820#0 133875252#0 133875252#3 133875256#0 133875255 4338449#0 4357619 133875223#0 133875223#1 133875223#3 gneE82 133875223#6 133875223#11 133875223#17 984881209 37777462 55290809#0 3441738#0 55290801 4236439#0 4236439#1 3441067#0 -203240967#2 -198245314#0 3609801#1 -39348547#2 39348546#0 52573118#0 2755#0 48207220" probability="1"/>
        <route id="77" edges="-133875236#3 -133875236#1 -133875229 -180869463#1 -133875249#2 -133875226#2 -133875226#0 -3381569#3 94820#0 133875252#0 133875252#3 133875256#0 133875255 4338449#0 4357619 133875223#0 133875223#1 133875223#3 gneE82 133875223#6 133875223#11 133875223#17 984881209 37777462 55290809#0 3441738#0 55290801 4236439#0 4236439#1 3441067#0 -203240967#2 -198245314#0 3609801#1 -39348547#2 39348546#0 52573118#0 2755#0 48207220 52573120" probability="1"/>
        <route id="87" edges="-133875245#2 -133875236#3 -133875236#1 -133875229 -180869463#1 -133875249#2 -133875226#2 -133875226#0 -3381569#3 94820#0 133875252#0 133875252#3 133875256#0 133875255 4338449#0 4357619 133875223#0 133875223#1 133875223#3 gneE82 133875223#6 133875223#11 133875223#17 984881209 37777462 55290809#0" probability="12"/>
        <route id="88" edges="-133875245#2 -133875236#3 -133875236#1 -133875229 -180869463#1 -133875249#2 -133875226#2 -133875226#0 -3381569#3 94820#0 133875252#0 133875252#3 133875256#0 133875255 4338449#0 4357619 133875223#0 133875223#1 133875223#3 gneE82 133875223#6 133875223#11 133875223#17 984881209 37777462 55290809#0 3441738#0" probability="1"/>
        <route id="103" edges="-133875245#2 -133875236#3 -133875236#1 -133875229 -180869463#1 -133875249#2 -133875226#2 -133875226#0 -3381569#3 94820#0 133875252#0 133875252#3 4338448#0 48665005 115952095#0 -546225667#1 -8769288#1 3120967#0 773250139#1 331545472#2 3086259#0 3086261 3091989#1 -2524 30991997#1 1040747475 2757#0 2757#1 1025513686#0 1025513686#1 2761 48173166#0 -899656225#3" probability="1"/>
        <route id="104" edges="-133875245#2 -133875236#3 -133875236#1 -133875229 -180869463#1 -133875249#2 -133875226#2 -133875226#0 -3381569#3 94820#0 133875252#0 133875252#3 4338448#0 48665005 115952095#0 -546225667#1 -8769288#1 3120967#0 773250139#1 331545472#2 3086259#0 3086261 3091989#1 -2524 30991997#1 1040747475 2757#0 2757#1 1025513686#0 1025513686#1 2761 48173166#0 -899656225#3 -74552388#1" probability="2"/>
        <route id="134" edges="-133875260#3 -133875262#1 -133875261#1 -3025859#8 -3025859#7 -3025859#5 -3025859#3 -351684503 -351685326 -55290805 34243632#0 133875195#0 133875195#3 55290800 55290807 55290799 984881209 37777462 55290809#0 3441738#0 55290801 -2527#2 4644987#0 55296249#0 gneE91 55602323#3" probability="2"/>
        <route id="141" edges="-133875261#1 -3025859#8 -3025859#7 -3025859#5 -3025859#3 -351684503 -351685326 -55290805 34243632#0 133875195#0 133875195#3 55290800 55290807 55290799 984881209 37777462 55290809#0 3441738#0 55290801 -2527#2 4644987#0 55296249#0 26753071 -39264086" probability="2"/>
        <route id="142" edges="-133875261#1 -3025859#8 -3025859#7 -3025859#5 -3025859#3 -351684503 -351685326 -55290805 34243632#0 133875195#0 133875195#3 55290800 55290807 55290799 984881209 37777462 55290809#0 3441738#0 55290801 -2527#2 4644987#0 55296249#0 gneE91 4231695#0 4231695#3" probability="2"/>
        <route id="143" edges="-133875261#1 -3025859#8 -3025859#7 -3025859#5 -3025859#3 -351684503 -351685326 -55290805 34243632#0 133875195#0 133875195#3 55290800 55290807 55290799 984881209 37777462 55290809#0 3441738#0 55290801 -2527#2 4644987#0 55296249#0 gneE91 55602323#3 55602323#3.91 -8769288#1 8769305 309842640#0 39352131#0 39352131#2 39352131#3 837572187#0 837572187#1" probability="2"/>
        <route id="156" edges="-180869463#1 -133875249#2 -133875226#2 -133875226#0 -3381569#3 94820#0 133875252#0 133875252#3 133875256#0 133875255 4338449#0 4357619 133875223#0 133875223#1 133875223#3 gneE82 133875223#6 133875223#11 133875223#17 984881209 37777462 55290809#0 3441738#0 55290801 4236439#0 4236439#1 3441067#0 -203240967#2 -198245314#0 -26312537#4" probability="2"/>
        <route id="157" edges="-180869463#1 -133875249#2 -133875226#2 -133875226#0 -3381569#3 94820#0 133875252#0 133875252#3 133875256#0 133875255 4338449#0 4357619 133875223#0 133875223#1 133875223#3 gneE82 133875223#6 133875223#11 133875223#17 984881209 37777462 55290809#0 3441738#0 55290801 4236439#0 4236439#1 3441067#0 -203240967#2 -198245314#0 3609801#1 -39348547#2 39348546#0 52573118#0 2755#0 48207220 52573120 55290813#0 -4279571" probability="1"/>
        <route id="165" edges="-180869463#1 -133875249#2 -133875226#2 -133875226#0 -3381569#3 94820#0 133875252#0 133875252#3 4338448#0 48665005 115952095#0 -546225667#1 -8769288#1 3120967#0 773250139#1 331545472#2 3086259#0 3086261 3091989#1 -2524 30991997#1 1040747475 2757#0 2757#1 1025513686#0 1025513686#1 2761 48173166#0 -899656225#3" probability="1"/>
        <route id="166" edges="-188053689 -2955307#1 -3026118#5 -3025859#5 -3025859#3 -351684503 -351685326 -55290805 34243632#0 133875195#0 133875195#3 55290800 55290807 55290799 984881209 37777462 55290809#0 3441738#0 55290801 -2527#2 4644987#0 55296249#0 gneE91 55602323#3 55602323#3.91 -8769288#1 8769305 309842640#0 39352131#0 39352131#2 39352131#3 837572187#0 3600469#0" probability="1"/>
        <route id="200" edges="-192674701 -279357279#1 326284091 984881212 54401067 gneE72 -133875260#3 -133875262#1 -133875261#1 -3025859#8 -3025859#7 -3025859#5 -3025859#3 -351684503 -351685326 -55290805 34243632#0 133875195#0 133875195#3 55290800 55290807 55290799 984881209 37777462 55290809#0 3441738#0 55290801 -2527#2 4644987#0 55296249#0 26753071" probability="1"/>
        <route id="231" edges="-212#2 192668649#1 192668647 -3024965#8 3024965#3 -34784840#1 39183706 192668650#2 192668650#3 gneE107 gneE108 3292445#0.4 3292445#3 209#0 55290798#0 210#1 30992002 -3120967#1 8769305 309842640#0 39352131#0 39352131#2 39352131#3 837572187#0 837572187#1 837573373#0 837573373#2 837573373#4 444272568#1" probability="2"/>
        <route id="232" edges="-212#2 192668649#1 192668647 -3024965#8 3024965#3 -34784840#1 39183706 192668650#2 192668650#3 gneE107 gneE108 3292445#0.4 3292445#3 209#0 55290798#0 210#1 30992002 -3120967#1 8769305 309842640#0 39352131#0 39352131#2 39352131#3 837572187#0 837572187#1 837573373#0 837573373#2 837573373#4 444272568#1 3098972#0" probability="4"/>
        <route id="247" edges="-2524 30991997#1 1040747475 2757#0 2757#1 1025513686#0 1025513686#1 188924487#0 -3292445#8 -3292445#2 gneE109 -192668650#4 -192668650#2 -192668650#1 192668649#1 192668647 959553052#0 959553052#3 192674402#0 192674402#2 -48586336#2" probability="1"/>
        <route id="249" edges="-2524 30991997#1 1040747475 2757#0 2757#1 1025513686#0 1025513686#1 188924487#0 -3292445#8 -3292445#2 gneE109 -192668650#4 -192668650#2 -192668650#1 192668649#1 192668647 959553052#0 959553052#3 192674402#0 192674402#2 -gneE90" probability="1"/>
        <route id="253" edges="-252506895 -4231695#2 -gneE91 -55296249#2 -4644987#1 2527#0 4236439#0 4236439#1 3441067#0 55296262 4479201#0 4346053 3027099#0 505404870#0 351684045#0 133875181#0 351684503 3025859#0 3025859#5 3025859#6 3025859#8 133875261#0 133875262#0 133875260#0 48586818 gneE74 54401064 192674702#0 279357279#1 192674701 gneE80" probability="3"/>
        <route id="254" edges="-252506895 -4231695#2 55602323#3 55602323#3.91 -8769288#1 3120967#0 773250139#1 331545472#2 3086259#0 3086261 3091989#1 -2524 30991997#1 1040747475 2757#0 2757#1 1025513686#0 1025513686#1" probability="2"/>
        <route id="263" edges="-2527#2 4644987#0 55296249#0 gneE91 55602323#3 55602323#3.91 -8769288#1 8769305 309842640#0 39352131#0 39352131#2 39352131#3 837572187#0 837572187#1 837573373#0 837573373#2 837573373#4 444272568#1 -gneE28 gneE33" probability="5"/>
        <route id="265" edges="-26312557 26312537#3 2748#0 198245314#1 55296262 197960551 55290809#0 3441738#0 55290801 -2527#2 4644987#0 55296249#0 gneE91 55602323#3 55602323#3.91 -8769288#1 8769305" probability="1"/>
        <route id="266" edges="-26312557 26312537#3 2748#0 198245314#1 55296262 197960551 55290809#0 3441738#0 55290801 -2527#2 4644987#0 55296249#0 gneE91 55602323#3 55602323#3.91 -8769288#1 8769305 309842640#0 39352131#0 39352131#2 39352131#3 837572187#0 837572187#1" probability="2"/>
        <route id="267" edges="-26312557 26312537#3 2748#0 198245314#1 55296262 197960551 55290809#0 3441738#0 55290801 -2527#2 4644987#0 55296249#0 gneE91 55602323#3 55602323#3.91 -8769288#1 8769305 309842640#0 39352131#0 39352131#2 39352131#3 837572187#0 837572187#1 837573373#0 837573373#2 837573373#4 444272568#1 -gneE28 -gneE45 -gneE43" probability="2"/>
        <route id="268" edges="-26312557 26312537#3 2748#0 198245314#1 55296262 197960551 55290809#0 3441738#0 55290801 -2527#2 4644987#0 55296249#0 gneE91 55602323#3 55602323#3.91 -8769288#1 8769305 32751327 3086252#0" probability="3"/>
        <route id="269" edges="-26312557 26312537#3 2748#0 198245314#1 55296262 4479201#0 4346053 55290810 55290800 55290807 55290799 -133875223#19 -133875223#16 -133875223#10 gneE81 -133875223#4 -133875223#1 -133875223#0 -4357619 4340722#0 133875244#0 133875232#0 3381569#0 133875226#0 940770422#0" probability="2"/>
        <route id="275" edges="-26637310#2 3126773 39333941#2 127632770#0 167257#2 -55602323#6 -gneE91 -55296249#2 -4644987#1 2527#0 4236439#0 4236439#1 3441067#0 55296262 4479201#0 4346053 3027099#0 505404870#0 351684045#0 133875181#0 351684503 3025859#0 3025859#5 3025859#6 3025859#8" probability="1"/>
        <route id="276" edges="-26637310#2 3126773 39333941#2 127632770#0 167257#2 -55602323#6 -gneE91 -55296249#2 -4644987#1 2527#0 4236439#0 4236439#1 3441067#0 55296262 4479201#0 4346053 55290810 55290800" probability="1"/>
        <route id="282" edges="-26637310#2 3126773 39333941#2 39333941#4 8769305 309842640#0 39352131#0 39352131#2 39352131#3 837572187#0 837572187#1 837573373#0 837573373#2 837573373#4 444272568#1 3098972#0" probability="2"/>
        <route id="288" edges="-2743#1 2748#0 198245314#1 55296262 197960551 55290809#0 3441738#0 55290801" probability="4"/>
        <route id="289" edges="-2743#1 2748#0 198245314#1 55296262 197960551 55290809#0 3441738#0 55290801 -2527#2 4644987#0 55296249#0 gneE91 -57962409" probability="1"/>
        <route id="290" edges="-2743#1 2748#0 198245314#1 55296262 197960551 55290809#0 3441738#0 55290801 -2527#2 4644987#0 55296249#0 gneE91 -57962409 -822839889" probability="1"/>
        <route id="291" edges="-2743#1 2748#0 198245314#1 55296262 197960551 55290809#0 3441738#0 55290801 -2527#2 4644987#0 55296249#0 gneE91 55602323#3 55602323#3.91 -8769288#1" probability="1"/>
        <route id="292" edges="-2743#1 2748#0 198245314#1 55296262 197960551 55290809#0 3441738#0 55290801 -2527#2 4644987#0 55296249#0 gneE91 55602323#3 55602323#3.91 -8769288#1 3120967#0" probability="2"/>
        <route id="293" edges="-2743#1 2748#0 198245314#1 55296262 197960551 55290809#0 3441738#0 55290801 -2527#2 4644987#0 55296249#0 gneE91 55602323#3 55602323#3.91 -8769288#1 8769305" probability="2"/>
        <route id="295" edges="-2743#1 2748#0 198245314#1 55296262 197960551 55290809#0 3441738#0 55290801 -2527#2 4644987#0 55296249#0 gneE91 55602323#3 55602323#3.91 -8769288#1 8769305 309842640#0 39352131#0 39352131#2 39352131#3 837572187#0 837572187#1 837573373#0 837573373#2 837573373#4 444272568#1 3098972#0" probability="4"/>
        <route id="296" edges="-2743#1 2748#0 198245314#1 55296262 4479201#0 4346053 55290810 55290800 55290807 55290799 -133875223#19 -133875223#16 -133875223#10 gneE81 -133875223#4" probability="2"/>
        <route id="298" edges="-2743#1 2748#0 198245314#1 55296262 4479201#0 4346053 55290810 55290800 55290807 55290799 -133875223#19 -133875223#16 -133875223#10 gneE81 -133875223#4 -133875223#1 -133875223#0 -4357619 4340722#0 133875244#0 133875232#0 3381569#0 133875226#0 940770422#0" probability="2"/>
        <route id="302" edges="-2743#2 -2743#1 2748#0 198245314#1 55296262 197960551 55290809#0 3441738#0 55290801 -2527#2 4644987#0" probability="4"/>
        <route id="303" edges="-2743#2 -2743#1 2748#0 198245314#1 55296262 197960551 55290809#0 3441738#0 55290801 -2527#2 4644987#0 55296249#0 gneE91 55602323#3 55602323#3.91 -8769288#1 3120967#0 773250139#1 331545472#2 3086259#0 3086261" probability="1"/>
        <route id="305" edges="-2743#2 -2743#1 2748#0 198245314#1 55296262 4479201#0 4346053 3027099#0" probability="3"/>
        <route id="308" edges="-2745#1 -3609801#3 2748#0 198245314#1 55296262 197960551 55290809#0 3441738#0 55290801 -2527#2 4644987#0 55296249#0 gneE91 55602323#3 55602323#3.91 -8769288#1 3120967#0 773250139#1 331545472#2 3086259#0 3086261 3091989#1 -2524 30991997#1" probability="4"/>
        <route id="310" edges="-2745#1 -3609801#3 2748#0 198245314#1 55296262 197960551 55290809#0 3441738#0 55290801 -2527#2 4644987#0 55296249#0 gneE91 55602323#3 55602323#3.91 -8769288#1 8769305 309842640#0 39352131#0 39352131#2 39352131#3 837572187#0 837572187#1 837573373#0 837573373#2 837573373#4 444272568#1 -gneE28" probability="2"/>
        <route id="311" edges="-2745#1 -3609801#3 2748#0 198245314#1 55296262 197960551 55290809#0 3441738#0 55290801 -2527#2 4644987#0 55296249#0 gneE91 55602323#3 55602323#3.91 884727976#0" probability="1"/>
        <route id="312" edges="-2745#1 -3609801#3 2748#0 198245314#1 55296262 4479201#0" probability="1"/>
        <route id="314" edges="-2745#1 -3609801#3 2748#0 198245314#1 55296262 4479201#0 4346053 55290810 55290800 55290807 55290799 -133875223#19 -133875223#16 -133875223#10 gneE81 -133875223#4 -133875223#1 -133875223#0 -4357619 4340722#0 133875244#0 133875232#0 3381569#0" probability="2"/>
        <route id="315" edges="-2745#1 -3609801#3 2748#0 198245314#1 55296262 4479201#0 4346053 55290810 55290800 55290807 55290799 -133875223#19 -133875223#16 -133875223#10 gneE81 -133875223#4 -133875223#1 -133875223#0 -4357619 4340722#0 133875244#0 4338446#0 133875252#0 gneE97 -141841564#11" probability="1"/>
        <route id="318" edges="-279357279#1 326284091 984881212 54401067 gneE72 -133875260#3 -133875262#1 -133875261#1 -3025859#8 -3025859#7 -3025859#5 -3025859#3 -351684503 -351685326 -55290805 34243632#0 133875195#0 133875195#3 55290800 55290807 55290799 984881209 37777462 55290809#0 3441738#0" probability="2"/>
        <route id="319" edges="-279357279#1 326284091 984881212 54401067 gneE72 -133875260#3 -133875262#1 -133875261#1 -3025859#8 -3025859#7 -3025859#5 -3025859#3 -351684503 -351685326 -55290805 34243632#0 133875195#0 133875195#3 55290800 55290807 55290799 984881209 37777462 55290809#0 3441738#0 55290801 -2527#2 4644987#0 55296249#0 gneE91 4231695#0 4231695#3" probability="4"/>
        <route id="328" edges="-2955307#1 -3026118#5 -3025859#5 -3025859#3 -351684503 -351685326 -55290805 34243632#0 133875195#0 133875195#3 55290800 55290807 55290799 984881209 37777462 55290809#0 3441738#0 55290801 -2527#2" probability="2"/>
        <route id="329" edges="-2955307#1 -3026118#5 -3025859#5 -3025859#3 -351684503 -351685326 -55290805 34243632#0 133875195#0 133875195#3 55290800 55290807 55290799 984881209 37777462 55290809#0 3441738#0 55290801 -2527#2 4644987#0 55296249#0 gneE91 4231695#0 252506895" probability="2"/>
        <route id="330" edges="-2955307#1 -3026118#5 -3025859#5 -3025859#3 -351684503 -351685326 -55290805 34243632#0 133875195#0 133875195#3 55290800 55290807 55290799 984881209 37777462 55290809#0 3441738#0 55290801 -2527#2 4644987#0 55296249#0 gneE91 55602323#3 55602323#3.91 -8769288#1 8769305" probability="1"/>
        <route id="331" edges="-2955307#1 -3026118#5 -3025859#5 -3025859#3 -351684503 -351685326 -55290805 34243632#0 133875195#0 133875195#3 55290800 55290807 55290799 984881209 37777462 55290809#0 3441738#0 55290801 -2527#2 4644987#0 55296249#0 gneE91 55602323#3 55602323#3.91 -8769288#1 8769305 -4231711" probability="2"/>
        <route id="332" edges="-2955307#1 -3026118#5 -3025859#5 -3025859#3 -351684503 -351685326 -55290805 34243632#0 133875195#0 133875195#3 55290800 55290807 55290799 984881209 37777462 55290809#0 3441738#0 55290801 -2527#2 4644987#0 55296249#0 gneE91 55602323#3 55602323#3.91 -8769288#1 8769305 32751327" probability="1"/>
        <route id="342" edges="-2955307#2 -2955307#1 -3026118#5 -3025859#5 -3025859#3 -351684503 -351685326 -55290805 34243632#0 133875195#0 133875195#3 55290800 55290807 55290799 984881209 37777462 55290809#0 3441738#0 55290801 -2527#2 4644987#0 55296249#0 gneE91 55602323#3 55602323#3.91 -8769288#1 8769305 309842640#0 39352131#0 39352131#2" probability="2"/>
        <route id="344" edges="-2955307#2 -2955307#1 -3026118#5 -3025859#5 -3025859#3 -351684503 -351685326 -55290805 34243632#0 133875195#0 133875195#3 55290800 55290807 55290799 984881209 37777462 55290809#0 3441738#0 55290801 -2527#2 4644987#0 55296249#0 gneE91 55602323#3 55602323#3.91 -8769288#1 8769305 32751327 3086252#0 3086251 3086245#1" probability="1"/>
        <route id="358" edges="-2956761 -192668650#2 -192668650#1 192668649#1 192668647 959553052#0 959553052#3 192674402#0 192674402#2 -48586336#2 -gneE110 -58295596#1 -192674701 -279357279#1 326284091 984881212 54401067 gneE72 -133875260#3 -133875262#1 -133875261#1 -3025859#8 -3025859#7 -3025859#5 -3025859#3 -351684503 -351685326 -55290805 34243632#0 133875195#0 133875195#3 55290800 55290807 55290799 984881209 37777462" probability="10"/>
        <route id="368" edges="-2960823 48586823 gneE72 -133875260#3 -133875262#1 -133875261#1 -3025859#8 -3025859#7 -3025859#5 -3025859#3 -351684503 -351685326 -55290805 34243632#0 133875195#0 133875195#3 55290800 55290807 55290799 984881209 37777462 55290809#0 3441738#0 55290801 -2527#2 4644987#0 55296249#0 26753071" probability="1"/>
        <route id="369" edges="-2960823 48586823 gneE72 -133875260#3 -133875262#1 -133875261#1 -3025859#8 -3025859#7 -3025859#5 -3025859#3 -351684503 -351685326 -55290805 34243632#0 133875195#0 133875195#3 55290800 55290807 55290799 984881209 37777462 55290809#0 3441738#0 55290801 -2527#2 4644987#0 55296249#0 gneE91" probability="2"/>
        <route id="370" edges="-2960823 48586823 gneE72 -133875260#3 -133875262#1 -133875261#1 -3025859#8 -3025859#7 -3025859#5 -3025859#3 -351684503 -351685326 -55290805 34243632#0 133875195#0 133875195#3 55290800 55290807 55290799 984881209 37777462 55290809#0 3441738#0 55290801 -2527#2 4644987#0 55296249#0 gneE91 4231695#0 4231695#3" probability="3"/>
        <route id="389" edges="-2960823 48586823 gneE73 gneE74 54401064 192674702#0 279357279#1 192674701 58295596#0 gneE110 48586336#1 -192674402#2 -192674402#1 -959553052#4 -959553052#2 -34784840#1 39183706 192668650#2 192668650#3 gneE107 gneE108 3292445#0.4 3292445#3 209#0 55290798#0 210#1 30992002 -3120967#1 8769305 309842640#0 39352131#0 39352131#2 39352131#3 837572187#0 837572187#1 837573373#0 837573373#2 837573373#4 444272568#1 3098972#0" probability="6"/>
        <route id="405" edges="-2960931#0 326284103 54401064 192674702#0 279357279#1 192674701 58295596#0 gneE110 48586336#1 -192674402#2 -192674402#1 -959553052#4 -959553052#2 -34784840#1 39183706 192668650#2 192668650#3 gneE107 gneE108 3292445#0.4 3292445#3 209#0 55290798#0 210#1 30992002 -3120967#1 8769305 309842640#0 39352131#0 39352131#2 39352131#3 837572187#0 837572187#1 837573373#0 837573373#2 837573373#4 444272568#1 3098972#0" probability="6"/>
        <route id="410" edges="-2960931#0 326284103 54401064 984881214 984881212 54401067 gneE72 -133875260#3 -133875262#1 -133875261#1 -3025859#8 -3025859#7 -3025859#5 -3025859#3 -351684503 -351685326 -55290805 34243632#0 133875195#0 133875195#3 55290800 55290807 55290799 984881209 37777462 55290809#0 3441738#0 55290801 -2527#2 4644987#0 55296249#0 26753071" probability="2"/>
        <route id="429" edges="-2960939 54401052#1 54401052#2 414017617 683648842#0 683648842#1 3024957 175773133 3024962 48207559 52030084#0 38964070#0 39348547#1 -3609801#3 2748#0 198245314#1 55296262 197960551 55290809#0 3441738#0 55290801 -2527#2 4644987#0 55296249#0 gneE91 4231695#0 4231695#3" probability="3"/>
        <route id="430" edges="-2960939 54401052#1 54401052#2 414017617 683648842#0 683648842#1 3024957 175773133 3024962 48207559 52030084#0 38964070#0 39348547#1 -3609801#3 2748#0 198245314#1 55296262 197960551 55290809#0 3441738#0 55290801 -2527#2 4644987#0 55296249#0 gneE91 4231695#0 4231695#3 4231696#1" probability="1"/>
        <route id="445" edges="-3024958#0 115353253#1 683648843 683648842#0 683648842#1 3024957 175773133 3024962 48207559 52030084#0 38964070#0 39348547#1 -3609801#3 2748#0 198245314#1 55296262 4479201#0 4346053 55290810 55290800 55290807 55290799 -133875223#19 -133875223#16 -133875223#10 gneE81 -133875223#4 -133875223#1 -133875223#0 -4357619 4340722#0 133875244#0 133875232#0 3381569#0 133875226#0 133875226#1 133875249#0 180869463#0 133875229 133875236#0 133875236#2 133875245#0 133875245#3 gneE52 gneE52.55 -gneE51" probability="1"/>
        <route id="446" edges="-3024958#0 115353253#1 683648843 683648842#0 683648842#1 3024957 175773133 3024962 48207559 52030084#0 38964070#0 39348547#1 -3609801#3 2748#0 198245314#1 55296262 4479201#0 4346053 55290810 55290800 55290807 55290799 -133875223#19 -133875223#16 -133875223#10 gneE81 -133875223#4 -133875223#1 -133875223#0 -4357619 4340722#0 133875244#0 133875232#0 3381569#0 133875226#0 133875226#1 133875249#0 180869463#0 133875229 133875236#0 133875236#2 133875245#0 133875245#3 gneE52 gneE52.55 -gneE51 -404611919#1" probability="1"/>
        <route id="447" edges="-3024958#0 115353253#1 683648843 683648842#0 683648842#1 3024957 175773133 3024962 48207559 52030084#0 38964070#0 39348547#1 -3609801#3 2748#0 198245314#1 55296262 4479201#0 4346053 55290810 55290800 55290807 55290799 -133875223#19 -133875223#16 -133875223#10 gneE81 -133875223#4 -133875223#1 -133875223#0 -4357619 4340722#0 133875244#0 133875232#0 3381569#0 133875226#0 133875226#1 133875249#0 180869463#0 133875229 133875236#0 133875236#2 133875245#0 133875245#3 gneE52 gneE52.55 -gneE53" probability="2"/>
        <route id="448" edges="-3024958#0 115353253#1 683648843 683648842#0 683648842#1 3024957 175773133 3024962 48207559 52030084#0 38964070#0 39348547#1 -3609801#3 2748#0 198245314#1 55296262 4479201#0 4346053 55290810 55290800 55290807 55290799 -133875223#19 -133875223#16 -133875223#10 gneE81 -133875223#4 -133875223#1 -133875223#0 -4357619 4340722#0 133875244#0 4338446#0" probability="1"/>
        <route id="451" edges="-3024959#0 -50600070#4 -3024958#0 115353253#1 683648843 683648842#0 683648842#1 3024957 175773133 3024962 48207559 52030084#0 38964070#0 39348547#1 -3609801#3 2748#0 198245314#1 55296262 197960551 55290809#0 3441738#0 55290801 4236439#0 4236439#1" probability="1"/>
        <route id="461" edges="-3024963#1 -3024966#1 3024962 48207559 52030084#0 38964070#0 39348547#1 -3609801#3 2748#0 198245314#1 55296262 197960551 55290809#0 3441738#0 55290801 4236439#0 4236439#1" probability="2"/>
        <route id="478" edges="-3024965#2 -3024966#1 3024962 48207559 52030084#0 38964070#0 39348547#1 -3609801#3 2748#0 198245314#1 55296262 197960551 55290809#0 3441738#0 55290801 4236439#0 39333603" probability="3"/>
        <route id="479" edges="-3024965#2 -3024966#1 3024962 48207559 52030084#0 38964070#0 39348547#1 -3609801#3 2748#0 198245314#1 55296262 4479201#0 4346053 55290810 55290800 55290807 55290799 -133875223#19 -133875223#16" probability="2"/>
        <route id="484" edges="-3024966#1 3024962 48207559 52030084#0 38964070#0 39348547#1 -3609801#3 2748#0 198245314#1 55296262 197960551 55290809#0 3441738#0 55290801 -2527#2 4644987#0 55296249#0 26753071" probability="3"/>
        <route id="485" edges="-3024966#1 3024962 48207559 52030084#0 38964070#0 39348547#1 -3609801#3 2748#0 198245314#1 55296262 197960551 55290809#0 3441738#0 55290801 -2527#2 4644987#0 55296249#0 gneE91 4231695#0 4231695#3 4231696#1 -4231696#1 -416688557" probability="2"/>
        <route id="486" edges="-3024966#1 3024962 48207559 52030084#0 38964070#0 39348547#1 -3609801#3 2748#0 198245314#1 55296262 4479201#0 4346053 55290810 55290800 3027057" probability="2"/>
        <route id="487" edges="-3024966#1 3024962 48207559 52030084#0 38964070#0 39348547#1 -3609801#3 2748#0 198245314#1 55296262 4479201#0 4346053 55290810 55290800 55290807 55290799 -133875223#19 -133875223#16 -133875223#10" probability="2"/>
        <route id="488" edges="-3024966#1 3024962 48207559 52030084#0 38964070#0 39348547#1 -3609801#3 2748#0 198245314#1 55296262 4479201#0 4346053 55290810 55290800 55290807 55290799 -133875223#19 -133875223#16 -133875223#10 4479202#0" probability="5"/>
        <route id="503" edges="-3025859#3 -351684503 -351685326 -55290805 34243632#0 133875195#0 133875195#3 55290800 55290807 55290799 984881209 37777462 55290809#0 3441738#0 55290801 -2527#2 4644987#0 55296249#0 gneE91 55602323#3 55602323#3.91 -8769288#1" probability="2"/>