<?xml version="1.0" encoding="UTF-8"?>
<!-- generated on 2022-05-06 11:28:42.608288 by $Id$ UNKNOWN
  options: -r routes/basicRoutes.rou.xml -d data/edgeData.xml -o routes/generalRoutes.rou.xml <doubleminus>weighted -u generalDis <doubleminus>prefix g
-->
<routes xmlns:xsi="http://www.w3.org/2001/XMLSchema-instance" xsi:noNamespaceSchemaLocation="http://sumo.dlr.de/xsd/routes_file.xsd">
<!-- begin="0.0" end="3937.0" -->
    <routeDistribution id="generalDis">
        <route id="0" edges="-133875223#0 -4357619 4340722#0 133875244#0 133875232#0 3381569#0 133875226#0 133875226#1 133875249#0 180869463#0 133875229 133875236#0 133875236#2 133875245#0 133875245#3 gneE52 gneE52.55 -gneE51 -404611919#1 gneE25 gneE26 gneE43 gneE45 gneE28 -444272568#2" probability="1"/>
        <route id="1" edges="-133875223#0 -4357619 4340722#0 133875244#0 4338446#0 133875252#0 133875252#3 4338448#0 48665005 115952095#0 -546225667#1 -8769288#1" probability="3"/>
        <route id="2" edges="-133875223#0 -4357619 4340722#0 133875244#0 4338446#0 133875252#0 133875252#3 4338448#0 48665005 115952095#0 -546225667#1 -8769288#1 3120967#0 773250139#1 331545472#2 -210#1 -55290798#2 -209#3 -3292445#8 -3292445#2 gneE109" probability="2"/>
        <route id="4" edges="-133875223#0 -4357619 4340722#0 133875244#0 4338446#0 133875252#0 133875252#3 4338448#0 48665005 115952095#0 -546225667#1 -8769288#1 8769305 309842640#0 39352131#0 39352131#2 39352131#3 837572187#0" probability="1"/>
        <route id="5" edges="-133875223#0 -4357619 4340722#0 133875244#0 4338446#0 133875252#0 133875252#3 4338448#0 48665005 115952095#0 -546225667#1 -8769288#1 8769305 309842640#0 39352131#0 39352131#2 39352131#3 837572187#0 3600469#0" probability="1"/>
        <route id="7" edges="-133875223#1 -133875223#0 -4357619 4340722#0 133875244#0 133875232#0 3381569#0 133875226#0 133875226#1 133875249#0 180869463#0 133875229 133875236#0 133875236#2 133875245#0 133875245#3 gneE52 gneE52.55 -gneE53 -gneE50" probability="4"/>
        <route id="9" edges="-133875223#1 -133875223#0 -4357619 4340722#0 133875244#0 4338446#0 133875252#0 133875252#3 4338448#0 48665005 115952095#0 -546225667#1 -8769288#1 3120967#0 773250139#1 331545472#2 -210#1 -55290798#2 -209#3 -3292445#8 -3292445#2 gneE109" probability="1"/>
        <route id="11" edges="-133875223#1 -133875223#0 -4357619 4340722#0 133875244#0 4338446#0 133875252#0 133875252#3 4338448#0 48665005 115952095#0 -546225667#1 -8769288#1 3120967#0 773250139#1 331545472#2 3086259#0 3086261 3091989#1 -2524 30991997#1 1040747475 2757#0 2757#1 1025513686#0 1025513686#1" probability="2"/>
        <route id="13" edges="-133875223#1 -133875223#0 -4357619 4340722#0 133875244#0 4338446#0 133875252#0 133875252#3 4338448#0 48665005 115952095#0 -546225667#1 -8769288#1 8769305" probability="2"/>
        <route id="15" edges="-133875223#10 gneE81 -133875223#4 -133875223#1 -133875223#0 -4357619 4340722#0 133875244#0 4338446#0 133875252#0 133875252#3 4338448#0 48665005 115952095#0" probability="3"/>
        <route id="16" edges="-133875223#16 -133875223#10 4479202#0" probability="3"/>
        <route id="17" edges="-133875223#16 -133875223#10 gneE81 -133875223#4 -133875223#1 -133875223#0 -4357619 4340722#0 133875244#0 133875232#0" probability="1"/>
        <route id="18" edges="-133875223#16 -133875223#10 gneE81 -133875223#4 -133875223#1 -133875223#0 -4357619 4340722#0 133875244#0 133875232#0 3381569#0 133875226#0 133875226#1 133875249#0 180869463#0 133875229 133875236#0 133875236#2 133875245#0 133875245#3 gneE52 gneE52.55" probability="2"/>
        <route id="19" edges="-133875223#19 -133875223#16 -133875223#10 gneE81 -133875223#4 -133875223#1" probability="1"/>
        <route id="20" edges="-133875223#19 -133875223#16 -133875223#10 gneE81 -133875223#4 -133875223#1 -133875223#0 -4357619 4340722#0 133875244#0 4338446#0 133875252#0 gneE97 -141841564#11 -5191097#3 403281810#0 403281808" probability="3"/>
        <route id="21" edges="-133875223#4 -133875223#1 -133875223#0 -4357619" probability="10"/>
        <route id="22" edges="-133875223#4 -133875223#1 -133875223#0 -4357619 4340722#0 133875244#0 133875232#0 3381569#0 133875226#0" probability="8"/>
        <route id="24" edges="-133875226#0 -3381569#3 94820#0 133875252#0 133875252#3 133875256#0 133875255 4338449#0 4357619 133875223#0 133875223#1 133875223#3 gneE82 133875223#6 133875223#11 133875223#17 984881209 37777462 55290809#0 3441738#0 55290801 4236439#0 39333603" probability="1"/>
        <route id="26" edges="-133875226#0 -3381569#3 94820#0 133875252#0 133875252#3 133875256#0 133875255 4338449#0 4357619 133875223#0 133875223#1 133875223#3 gneE82 133875223#6 133875223#11 133875223#17 984881209 37777462 55290809#0 3441738#0 55290801 4236439#0 4236439#1 3441067#0 -203240967#2 -198245314#0 3609801#1" probability="1"/>
        <route id="28" edges="-133875226#0 -3381569#3 94820#0 133875252#0 133875252#3 133875256#0 133875255 4338449#0 4357619 133875223#0 133875223#1 133875223#3 gneE82 133875223#6 133875223#11 133875223#17 984881209 55290796 4346053 3027099#0 505404870#0 351684045#0" probability="2"/>
        <route id="29" edges="-133875226#0 -3381569#3 94820#0 133875252#0 133875252#3 133875256#0 133875255 4338449#0 4357619 133875223#0 133875223#1 133875223#3 gneE82 133875223#6 133875223#11 133875223#17 984881209 55290796 4346053 3027099#0 505404870#0 351684045#0 133875181#0 351684503 3025859#0 -3026116#5 -3026116#2 -40495054" probability="1"/>
        <route id="30" edges="-133875226#0 -3381569#3 94820#0 133875252#0 133875252#3 133875256#0 133875255 4338449#0 4357619 133875223#0 133875223#1 133875223#3 gneE82 133875223#6 133875223#11 133875223#17 984881209 55290796 4346053 3027099#0 505404870#0 351684045#0 133875181#0 351684503 3025859#0 3025859#5 3025859#6 3025859#8 133875261#0 133875262#0 133875260#0 48586818 gneE74 54401064 984881214 984881212" probability="1"/>
        <route id="31" edges="-133875226#0 -3381569#3 94820#0 133875252#0 133875252#3 133875256#0 133875255 4338449#0 4357619 133875223#0 133875223#1 133875223#3 gneE82 133875223#6 133875223#11 133875223#17 984881209 55290796 4346053 3027099#0 505404870#0 351684045#0 133875181#0 351684503 3025859#0 3025859#5 3025859#6 3025859#8 133875261#0 133875262#0 133875260#0 48586818 gneE74 gneE75 48586837 2960931#1 54401052#0" probability="1"/>
        <route id="32" edges="-133875226#0 -3381569#3 94820#0 133875252#0 133875252#3 4338448#0 48665005 115952095#0 -546225667#1 -8769288#1 3120967#0" probability="1"/>
        <route id="34" edges="-133875226#0 -3381569#3 94820#0 133875252#0 133875252#3 4338448#0 48665005 115952095#0 -546225667#1 -8769288#1 3120967#0 773250139#1 331545472#2 -210#1 -55290798#2 -209#3 -3292445#8 -3292445#2 gneE109 gneE107 3292444#0.4 3292451#0 3292451#3" probability="1"/>
        <route id="37" edges="-133875226#0 -3381569#3 94820#0 133875252#0 133875252#3 4338448#0 48665005 115952095#0 -546225667#1 -8769288#1 3120967#0 773250139#1 331545472#2 3086259#0 3086261 3091989#1 39340468#0 39340468#1 4271799#1" probability="1"/>
        <route id="38" edges="-133875226#0 -3381569#3 94820#0 133875252#0 133875252#3 4338448#0 48665005 115952095#0 -546225667#1 -8769288#1 3120967#0 773250139#1 331545472#2 30992002 3126772#0 3126773" probability="3"/>
        <route id="39" edges="-133875226#0 -3381569#3 94820#0 133875252#0 133875252#3 4338448#0 48665005 115952095#0 3441624#0 167160#0 gneE91 4231695#0" probability="1"/>
        <route id="41" edges="-133875226#0 -3381569#3 94820#0 133875252#0 gneE97 -141841564#11 -5191097#3 403281810#0" probability="3"/>
        <route id="43" edges="-133875226#2 -133875226#0 -3381569#3 94820#0 133875252#0 133875252#3 133875256#0 133875255 4338449#0 4357619 133875223#0 133875223#1 133875223#3 gneE82 133875223#6 133875223#11 133875223#17 984881209 37777462 55290809#0 3441738#0 55290801 4236439#0 39333603" probability="1"/>
        <route id="44" edges="-133875226#2 -133875226#0 -3381569#3 94820#0 133875252#0 133875252#3 133875256#0 133875255 4338449#0 4357619 133875223#0 133875223#1 133875223#3 gneE82 133875223#6 133875223#11 133875223#17 984881209 55290796 4346053 3027099#0 505404870#0 351684045#0 133875181#0 351684503 3025859#0 3025859#5 3025859#6 3025859#8 133875261#0 133875262#0 133875260#0 48586818 gneE74 54401064 192674702#0 279357279#1" probability="1"/>
        <route id="50" edges="-133875226#2 -133875226#0 -3381569#3 94820#0 133875252#0 133875252#3 4338448#0 48665005 115952095#0 -546225667#1 -8769288#1 3120967#0 773250139#1 331545472#2 3086259#0 3086261 3091989#1 -2524 30991997#1 1040747475 2757#0 2757#1 1025513686#0 1025513686#1 2761 48173166#0 -899656225#3" probability="1"/>
        <route id="51" edges="-133875226#2 -133875226#0 -3381569#3 94820#0 133875252#0 133875252#3 4338448#0 48665005 115952095#0 -546225667#1 -8769288#1 8769305 309842640#0 39352131#0" probability="2"/>
        <route id="53" edges="-133875229 -180869463#1 -133875249#2 -133875226#2 -133875226#0 -3381569#3 94820#0 133875252#0 133875252#3 133875256#0 133875255 133875259#0 133875244#0 133875232#0 3381569#0 133875226#0 940770422#0" probability="1"/>
        <route id="54" edges="-133875229 -180869463#1 -133875249#2 -133875226#2 -133875226#0 -3381569#3 94820#0 133875252#0 133875252#3 133875256#0 133875255 4338449#0 4357619 133875223#0 133875223#1 133875223#3 gneE82 133875223#6 133875223#11 133875223#17 984881209 37777462 55290809#0 3441738#0" probability="2"/>
        <route id="55" edges="-133875229 -180869463#1 -133875249#2 -133875226#2 -133875226#0 -3381569#3 94820#0 133875252#0 133875252#3 133875256#0 133875255 4338449#0 4357619 133875223#0 133875223#1 133875223#3 gneE82 133875223#6 133875223#11 133875223#17 984881209 37777462 55290809#0 3441738#0 55290801 4236439#0 39333603" probability="1"/>
        <route id="56" edges="-133875229 -180869463#1 -133875249#2 -133875226#2 -133875226#0 -3381569#3 94820#0 133875252#0 133875252#3 133875256#0 133875255 4338449#0 4357619 133875223#0 133875223#1 133875223#3 gneE82 133875223#6 133875223#11 133875223#17 984881209 37777462 55290809#0 3441738#0 55290801 4236439#0 4236439#1 3441067#0 -203240967#2 -198245314#0 3609801#1 -39348547#2 50842685#0" probability="3"/>
        <route id="57" edges="-133875229 -180869463#1 -133875249#2 -133875226#2 -133875226#0 -3381569#3 94820#0 133875252#0 133875252#3 133875256#0 133875255 4338449#0 4357619 133875223#0 133875223#1 133875223#3 gneE82 133875223#6 133875223#11 133875223#17 984881209 55290796 4346053 3027099#0 505404870#0 351684045#0 133875181#0 351684503 3025859#0 -3026116#5 -3026116#2 -40495054" probability="3"/>
        <route id="58" edges="-133875229 -180869463#1 -133875249#2 -133875226#2 -133875226#0 -3381569#3 94820#0 133875252#0 133875252#3 133875256#0 133875255 4338449#0 4357619 133875223#0 133875223#1 133875223#3 gneE82 133875223#6 133875223#11 133875223#17 984881209 55290796 4346053 3027099#0 505404870#0 351684045#0 133875181#0 351684503 3025859#0 3025859#5 3026118#0" probability="2"/>
        <route id="59" edges="-133875229 -180869463#1 -133875249#2 -133875226#2 -133875226#0 -3381569#3 94820#0 133875252#0 133875252#3 133875256#0 133875255 4338449#0 4357619 133875223#0 133875223#1 133875223#3 gneE82 133875223#6 133875223#11 133875223#17 984881209 55290796 4346053 3027099#0 505404870#0 351684045#0 133875181#0 351684503 3025859#0 3025859#5 3026118#0 3026118#6 2955307#2" probability="2"/>
        <route id="60" edges="-133875229 -180869463#1 -133875249#2 -133875226#2 -133875226#0 -3381569#3 94820#0 133875252#0 133875252#3 133875256#0 133875255 4338449#0 4357619 133875223#0 133875223#1 133875223#3 gneE82 4479202#0 2958843#1" probability="1"/>
        <route id="61" edges="-133875229 -180869463#1 -133875249#2 -133875226#2 -133875226#0 -3381569#3 94820#0 133875252#0 133875252#3 4338448#0 48665005 115952095#0 -546225667#1 -8769288#1 3120967#0 773250139#1 331545472#2" probability="3"/>
        <route id="62" edges="-133875229 -180869463#1 -133875249#2 -133875226#2 -133875226#0 -3381569#3 94820#0 133875252#0 133875252#3 4338448#0 48665005 115952095#0 -546225667#1 -8769288#1 8769305 309842640#0 39352131#0 39352131#2 39352131#3" probability="3"/>
        <route id="64" edges="-133875229 -180869463#1 -133875249#2 -133875226#2 -133875226#0 -3381569#3 94820#0 133875252#0 133875252#3 4338448#0 48665005 115952095#0 3441624#0" probability="7"/>
        <route id="65" edges="-133875229 -180869463#1 -133875249#2 -133875226#2 -133875226#0 -3381569#3 94820#0 133875252#0 133875252#3 4338448#0 48665005 115952095#0 3441624#0 167160#0 -55296249#2 -4644987#1" probability="1"/>
        <route id="70" edges="-133875236#1 -133875229 -180869463#1 -133875249#2 -133875226#2 -133875226#0 -3381569#3 94820#0 133875252#0 133875252#3 133875256#0 133875255 4338449#0 4357619 133875223#0 133875223#1 133875223#3 gneE82 133875223#6 133875223#11 133875223#17 984881209 37777462 55290809#0 3441738#0 55290801 4236439#0 4236439#1 3441067#0 -203240967#2 -198245314#0 3609801#1" probability="5"/>
        <route id="71" edges="-133875236#1 -133875229 -180869463#1 -133875249#2 -133875226#2 -133875226#0 -3381569#3 94820#0 133875252#0 133875252#3 133875256#0 133875255 4338449#0 4357619 133875223#0 133875223#1 133875223#3 gneE82 133875223#6 133875223#11 133875223#17 984881209 37777462 55290809#0 3441738#0 55290801 4236439#0 4236439#1 3441067#0 -203240967#2 -198245314#0 3609801#1 -39348547#2 39348546#0 52573118#0 2755#0 48207220" probability="1"/>
        <route id="72" edges="-133875236#1 -133875229 -180869463#1 -133875249#2 -133875226#2 -133875226#0 -3381569#3 94820#0 133875252#0 133875252#3 133875256#0 133875255 4338449#0 4357619 133875223#0 133875223#1 133875223#3 gneE82 133875223#6 133875223#11 133875223#17 984881209 55290796 4346053 3027099#0 505404870#0 351684045#0 133875181#0 351684503 3025859#0 3025859#5 3025859#6 3025859#8 133875261#0" probability="1"/>
        <route id="73" edges="-133875236#1 -133875229 -180869463#1 -133875249#2 -133875226#2 -133875226#0 -3381569#3 94820#0 133875252#0 133875252#3 133875256#0 133875255 4338449#0 4357619 133875223#0 133875223#1 133875223#3 gneE82 133875223#6 133875223#11 133875223#17 984881209 55290796 4346053 3027099#0 505404870#0 351684045#0 133875181#0 351684503 3025859#0 3025859#5 3025859#6 3025859#8 133875261#0 133875262#0 133875260#0 48586818 gneE74 54401064 192674702#0 279357279#1 192674701 58295596#0 -240290973#1 3024960#0 3024959#0 7995389" probability="4"/>
        <route id="74" edges="-133875236#1 -133875229 -180869463#1 -133875249#2 -133875226#2 -133875226#0 -3381569#3 94820#0 133875252#0 133875252#3 4338448#0 48665005 115952095#0 -546225667#1 -8769288#1 3120967#0 773250139#1 331545472#2 -210#1 -55290798#2 -209#3 -3292445#8 -3292445#2 gneE109 -192668650#4 -192668650#2 -192668650#1 192668649#1 192668647 -3024965#8 -3024965#2 3024963#0" probability="1"/>
        <route id="75" edges="-133875236#1 -133875229 -180869463#1 -133875249#2 -133875226#2 -133875226#0 -3381569#3 94820#0 133875252#0 133875252#3 4338448#0 48665005 115952095#0 -546225667#1 -8769288#1 3120967#0 773250139#1 331545472#2 3086259#0 3086261 3091989#1 -2524 30991997#1 1040747475 2757#0 2757#1 1025513686#0 1025513686#1 2761 48173166#0 -899656225#3 3292446" probability="3"/>
        <route id="77" edges="-133875236#1 -133875229 -180869463#1 -133875249#2 -133875226#2 -133875226#0 -3381569#3 94820#0 133875252#0 133875252#3 4338448#0 48665005 115952095#0 3441624#0 167160#0 gneE91 4231695#0 252506895" probability="1"/>
        <route id="78" edges="-133875236#3" probability="10"/>
        <route id="79" edges="-133875236#3 -133875236#1 -133875229 -180869463#1 -133875249#2 -133875226#2 -133875226#0 -3381569#3" probability="3"/>
        <route id="80" edges="-133875236#3 -133875236#1 -133875229 -180869463#1 -133875249#2 -133875226#2 -133875226#0 -3381569#3 94820#0 133875252#0 133875252#3 133875256#0 133875255 4338449#0 4357619 133875223#0 133875223#1 133875223#3 gneE82 133875223#6 133875223#11 133875223#17 984881209 37777462 55290809#0 3441738#0 55290801 4236439#0 4236439#1 3441067#0 -203240967#2 -198245314#0 3609801#1 -39348547#2 39348546#0 52573118#0 2755#0 48207220 52573120 52030081 52030084#0" probability="2"/>
        <route id="81" edges="-133875236#3 -133875236#1 -133875229 -180869463#1 -133875249#2 -133875226#2 -133875226#0 -3381569#3 94820#0 133875252#0 133875252#3 133875256#0 133875255 4338449#0 4357619 133875223#0 133875223#1 133875223#3 gneE82 133875223#6 133875223#11 133875223#17 984881209 55290796 4346053 3027099#0 505404870#0 351684045#0 133875181#0 351684503 3025859#0 3025859#5 3025859#6 3025859#8 133875261#0 133875262#0 133875260#0 48586818 gneE74 54401064" probability="1"/>
        <route id="82" edges="-133875236#3 -133875236#1 -133875229 -180869463#1 -133875249#2 -133875226#2 -133875226#0 -3381569#3 94820#0 133875252#0 133875252#3 133875256#0 133875255 4338449#0 4357619 133875223#0 133875223#1 133875223#3 gneE82 133875223#6 133875223#11 133875223#17 984881209 55290796 4346053 3027099#0 505404870#0 351684045#0 133875181#0 351684503 3025859#0 3025859#5 3025859#6 3025859#8 133875261#0 133875262#0 133875260#0 48586818 gneE74 gneE75 48586837 2960931#1" probability="1"/>
        <route id="83" edges="-133875236#3 -133875236#1 -133875229 -180869463#1 -133875249#2 -133875226#2 -133875226#0 -3381569#3 94820#0 133875252#0 133875252#3 133875256#0 133875255 4338449#0 4357619 133875223#0 133875223#1 133875223#3 gneE82 133875223#6 133875223#11 133875223#17 984881209 55290796 4346053 3027099#0 505404870#0 351684045#0 133875181#0 351684503 3025859#0 3025859#5 3025859#6 3025859#8 133875261#0 133875262#0 133875260#0 48586818 gneE74 gneE75 48586837 3024770 54401052#2 414017617 683648842#0 683648842#1 683648844 115353253#0 3024958#0" probability="3"/>
        <route id="84" edges="-133875236#3 -133875236#1 -133875229 -180869463#1 -133875249#2 -133875226#2 -133875226#0 -3381569#3 94820#0 133875252#0 133875252#3 133875256#0 133875255 4338449#0 4357619 133875223#0 133875223#1 133875223#3 gneE82 133875223#6 133875223#11 133875223#17 984881209 55290796 4346053 55290810 55290800" probability="1"/>
        <route id="85" edges="-133875236#3 -133875236#1 -133875229 -180869463#1 -133875249#2 -133875226#2 -133875226#0 -3381569#3 94820#0 133875252#0 133875252#3 4338448#0" probability="4"/>
        <route id="86" edges="-133875236#3 -133875236#1 -133875229 -180869463#1 -133875249#2 -133875226#2 -133875226#0 -3381569#3 94820#0 133875252#0 133875252#3 4338448#0 48665005 115952095#0 -546225667#1 -8769288#1" probability="1"/>
        <route id="87" edges="-133875236#3 -133875236#1 -133875229 -180869463#1 -133875249#2 -133875226#2 -133875226#0 -3381569#3 94820#0 133875252#0 133875252#3 4338448#0 48665005 115952095#0 -546225667#1 -8769288#1 3120967#0 773250139#1 331545472#2 -210#1 -55290798#2 -209#3 -3292445#8 -3292445#2 gneE109 -192668650#4 -192668650#2 -192668650#1 192668649#1 192668647" probability="1"/>
        <route id="89" edges="-133875236#3 -133875236#1 -133875229 -180869463#1 -133875249#2 -133875226#2 -133875226#0 -3381569#3 94820#0 133875252#0 133875252#3 4338448#0 48665005 115952095#0 -546225667#1 -8769288#1 3120967#0 773250139#1 331545472#2 -210#1 -55290798#2 -209#3 -3292445#8 -3292445#2 gneE109 -192668650#4 2956761" probability="1"/>
        <route id="91" edges="-133875236#3 -133875236#1 -133875229 -180869463#1 -133875249#2 -133875226#2 -133875226#0 -3381569#3 94820#0 133875252#0 133875252#3 4338448#0 48665005 115952095#0 -546225667#1 -8769288#1 3120967#0 773250139#1 331545472#2 3086259#0 3086261 3091989#1 39340468#0 39340468#1 4271799#1" probability="1"/>
        <route id="92" edges="-133875236#3 -133875236#1 -133875229 -180869463#1 -133875249#2 -133875226#2 -133875226#0 -3381569#3 94820#0 133875252#0 133875252#3 4338448#0 48665005 115952095#0 -546225667#1 -8769288#1 3120967#0 773250139#1 331545472#2 3086259#0 3086261 3091989#1 39340468#0 39340468#1 4271799#1 8769450" probability="1"/>
        <route id="95" edges="-133875236#3 -133875236#1 -133875229 -180869463#1 -133875249#2 -133875226#2 -133875226#0 -3381569#3 94820#0 133875252#0 133875252#3 4338448#0 48665005 115952095#0 -546225667#1 -8769288#1 8769305 32751327 3086252#0" probability="1"/>
        <route id="96" edges="-133875236#3 -133875236#1 -133875229 -180869463#1 -133875249#2 -133875226#2 -133875226#0 -3381569#3 94820#0 133875252#0 133875252#3 4338448#0 48665005 115952095#0 -546225667#1 -8769288#1 8769305 32751327 3086252#0 3086251" probability="2"/>
        <route id="97" edges="-133875236#3 -133875236#1 -133875229 -180869463#1 -133875249#2 -133875226#2 -133875226#0 -3381569#3 94820#0 133875252#0 133875252#3 4338448#0 48665005 115952095#0 -546225667#1 -8769288#1 8769305 32751327 3086252#0 3086251 3086246#0" probability="1"/>
        <route id="99" edges="-133875245#2 -133875236#3 -133875236#1 -133875229 -180869463#1 -133875249#2 -133875226#2 -133875226#0 -3381569#3 94820#0 133875252#0" probability="4"/>
        <route id="102" edges="-133875245#2 -133875236#3 -133875236#1 -133875229 -180869463#1 -133875249#2 -133875226#2 -133875226#0 -3381569#3 94820#0 133875252#0 133875252#3 133875256#0 133875255 4338449#0 4357619 133875223#0 133875223#1 133875223#3 gneE82 133875223#6 133875223#11 133875223#17 984881209 37777462 55290809#0 3441738#0 55290801 4236439#0 4236439#1 3441067#0 -203240967#2 -37777243#4" probability="3"/>
        <route id="104" edges="-133875245#2 -133875236#3 -133875236#1 -133875229 -180869463#1 -133875249#2 -133875226#2 -133875226#0 -3381569#3 94820#0 133875252#0 133875252#3 133875256#0 133875255 4338449#0 4357619 133875223#0 133875223#1 133875223#3 gneE82 133875223#6 133875223#11 133875223#17 984881209 55290796 4346053 3027099#0 505404870#0 351684045#0 133875181#0 351684503 3025859#0 3025859#5" probability="1"/>
        <route id="106" edges="-133875245#2 -133875236#3 -133875236#1 -133875229 -180869463#1 -133875249#2 -133875226#2 -133875226#0 -3381569#3 94820#0 133875252#0 133875252#3 133875256#0 133875255 4338449#0 4357619 133875223#0 133875223#1 133875223#3 gneE82 133875223#6 133875223#11 133875223#17 984881209 55290796 4346053 3027099#0 505404870#0 351684045#0 133875181#0 351684503 3025859#0 3025859#5 3025859#6 3025859#8 133875261#0 133875262#0 133875260#0 48586818 gneE74 gneE75" probability="2"/>
        <route id="108" edges="-133875245#2 -133875236#3 -133875236#1 -133875229 -180869463#1 -133875249#2 -133875226#2 -133875226#0 -3381569#3 94820#0 133875252#0 133875252#3 133875256#0 133875255 4338449#0 4357619 133875223#0 133875223#1 133875223#3 gneE82 133875223#6 133875223#11 133875223#17 984881209 55290796 4346053 3027099#0 505404870#0 351684045#0 133875181#0 351684503 3025859#0 3025859#5 3025859#6 3025859#8 133875261#0 133875262#0 133875260#0 48586818 gneE74 gneE75 48586837 2960931#1 54401052#0" probability="1"/>
        <route id="111" edges="-133875245#2 -133875236#3 -133875236#1 -133875229 -180869463#1 -133875249#2 -133875226#2 -133875226#0 -3381569#3 94820#0 133875252#0 133875252#3 4338448#0 48665005 115952095#0 -546225667#1 -8769288#1 3120967#0 773250139#1 331545472#2 3086259#0 3086261 3091989#1 39340468#0 39340468#1 39264130" probability="2"/>
        <route id="113" edges="-133875245#2 -133875236#3 -133875236#1 -133875229 -180869463#1 -133875249#2 -133875226#2 -133875226#0 -3381569#3 94820#0 133875252#0 133875252#3 4338448#0 48665005 115952095#0 -546225667#1 -8769288#1 8769305 32751327 3086252#0 3086251 3086245#1" probability="3"/>
        <route id="116" edges="-133875245#3 -133875245#2 -133875236#3 -133875236#1 -133875229 -180869463#1 -133875249#2 -133875226#2 -133875226#0 -3381569#3 94820#0 133875252#0 133875252#3 133875256#0 133875255 4338449#0 4357619 133875223#0 133875223#1 133875223#3 gneE82 133875223#6 133875223#11 133875223#17 984881209 55290796 4346053 3027099#0 505404870#0 351684045#0 133875181#0 351684503 3025859#0 -3026116#5 -54516245#0 -3026119#2" probability="2"/>
        <route id="117" edges="-133875245#3 -133875245#2 -133875236#3 -133875236#1 -133875229 -180869463#1 -133875249#2 -133875226#2 -133875226#0 -3381569#3 94820#0 133875252#0 133875252#3 4338448#0 48665005 115952095#0 -546225667#1 -8769288#1 3120967#0 773250139#1 331545472#2" probability="3"/>
        <route id="118" edges="-133875245#3 -133875245#2 -133875236#3 -133875236#1 -133875229 -180869463#1 -133875249#2 -133875226#2 -133875226#0 -3381569#3 94820#0 133875252#0 133875252#3 4338448#0 48665005 115952095#0 -546225667#1 -8769288#1 3120967#0 773250139#1 331545472#2 -210#1 -55290798#2 -209#3 -3292445#8 -3292445#2 gneE109 -192668650#4" probability="4"/>
        <route id="119" edges="-133875245#3 -133875245#2 -133875236#3 -133875236#1 -133875229 -180869463#1 -133875249#2 -133875226#2 -133875226#0 -3381569#3 94820#0 133875252#0 133875252#3 4338448#0 48665005 115952095#0 -546225667#1 -8769288#1 3120967#0 773250139#1 331545472#2 3086259#0 3086261 3091989#1 -2524 30991997#1 1040747475" probability="2"/>
        <route id="121" edges="-133875245#3 -133875245#2 -133875236#3 -133875236#1 -133875229 -180869463#1 -133875249#2 -133875226#2 -133875226#0 -3381569#3 94820#0 133875252#0 133875252#3 4338448#0 48665005 115952095#0 3441624#0 167160#0 26753071 -39264086" probability="3"/>
        <route id="122" edges="-133875245#3 -133875245#2 -133875236#3 -133875236#1 -133875229 -180869463#1 -133875249#2 -133875226#2 -133875226#0 -3381569#3 94820#0 133875252#0 133875252#3 4338448#0 48665005 115952095#0 3441624#0 167160#0 gneE91" probability="2"/>
        <route id="124" edges="-133875249#2 -133875226#2 -133875226#0 -3381569#3 94820#0 133875252#0 133875252#3 133875256#0 133875255 4338449#0 4357619" probability="5"/>
        <route id="125" edges="-133875249#2 -133875226#2 -133875226#0 -3381569#3 94820#0 133875252#0 133875252#3 133875256#0 133875255 4338449#0 4357619 133875223#0 133875223#1 133875223#3 gneE82 133875223#6 133875223#11 133875223#17" probability="2"/>
        <route id="126" edges="-133875249#2 -133875226#2 -133875226#0 -3381569#3 94820#0 133875252#0 133875252#3 133875256#0 133875255 4338449#0 4357619 133875223#0 133875223#1 133875223#3 gneE82 133875223#6 133875223#11 133875223#17 984881209 37777462 55290809#0 3441738#0 55290801 4236439#0 4236439#1 3441067#0" probability="2"/>
        <route id="127" edges="-133875249#2 -133875226#2 -133875226#0 -3381569#3 94820#0 133875252#0 133875252#3 133875256#0 133875255 4338449#0 4357619 133875223#0 133875223#1 133875223#3 gneE82 133875223#6 133875223#11 133875223#17 984881209 55290796 4346053 3027099#0 505404870#0 351684045#0 133875181#0 351684503 3025859#0 3025859#5 3025859#6 3025859#8 133875261#0 133875262#0 133875260#0 48586818 gneE74 54401064 192674702#0 279357279#1 192674701 58295596#0 -240290973#1 3024960#0" probability="1"/>
        <route id="128" edges="-133875249#2 -133875226#2 -133875226#0 -3381569#3 94820#0 133875252#0 133875252#3 133875256#0 133875255 4338449#0 4357619 133875223#0 133875223#1 133875223#3 gneE82 133875223#6 133875223#11 133875223#17 984881209 55290796 4346053 3027099#0 505404870#0 351684045#0 133875181#0 351684503 3025859#0 3025859#5 3026118#0 3026118#6 188053689" probability="1"/>
        <route id="129" edges="-133875249#2 -133875226#2 -133875226#0 -3381569#3 94820#0 133875252#0 133875252#3 4338448#0 48665005 115952095#0 -546225667#1 -8769288#1 3120967#0 773250139#1 331545472#2" probability="1"/>
        <route id="130" edges="-133875249#2 -133875226#2 -133875226#0 -3381569#3 94820#0 133875252#0 133875252#3 4338448#0 48665005 115952095#0 -546225667#1 -8769288#1 3120967#0 773250139#1 331545472#2 -210#1 -55290798#2 -209#3 -3292445#8 -3292445#2 gneE109 -192668650#4 -192668650#2 -192668650#1 192668649#1 192668647 959553052#0" probability="1"/>
        <route id="131" edges="-133875249#2 -133875226#2 -133875226#0 -3381569#3 94820#0 133875252#0 133875252#3 4338448#0 48665005 115952095#0 -546225667#1 -8769288#1 3120967#0 773250139#1 331545472#2 -210#1 -55290798#2 -209#3 -3292445#8 -3292445#2 gneE109 gneE107 3292444#0.4 3292451#0 3292451#3" probability="1"/>
        <route id="132" edges="-133875249#2 -133875226#2 -133875226#0 -3381569#3 94820#0 133875252#0 133875252#3 4338448#0 48665005 115952095#0 -546225667#1 -8769288#1 8769305 309842640#0 39352131#0 39352131#2" probability="1"/>
        <route id="133" edges="-133875260#3 -133875262#1 -133875261#1 -3025859#8 -3025859#7 -3025859#5 -3025859#3 -351684503 -351685326 -55290805 34243632#0 133875195#0 133875195#3 55290800 55290807 55290799 -133875223#19" probability="1"/>
        <route id="134" edges="-133875260#3 -133875262#1 -133875261#1 -3025859#8 -3025859#7 -3025859#5 -3025859#3 -351684503 -351685326 -55290805 34243632#0 133875195#0 133875195#3 55290800 55290807 55290799 -133875223#19 -133875223#16 -133875223#10 gneE81 -133875223#4 -133875223#1" probability="1"/>
        <route id="135" edges="-133875260#3 -133875262#1 -133875261#1 -3025859#8 -3025859#7 -3025859#5 -3025859#3 -351684503 -351685326 -55290805 34243632#0 133875195#0 133875195#3 55290800 55290807 55290799 -133875223#19 -133875223#16 -133875223#10 gneE81 -133875223#4 -133875223#1 -133875223#0" probability="1"/>
        <route id="136" edges="-133875260#3 -133875262#1 -133875261#1 -3025859#8 -3025859#7 -3025859#5 -3025859#3 -351684503 -351685326 -55290805 34243632#0 133875195#0 133875195#3 55290800 55290807 55290799 -133875223#19 -133875223#16 -133875223#10 gneE81 -133875223#4 -133875223#1 -133875223#0 -4357619 4340722#0 133875244#0 133875232#0 3381569#0 133875226#0 133875226#1 133875249#0 180869463#0" probability="2"/>
        <route id="137" edges="-133875260#3 -133875262#1 -133875261#1 -3025859#8 -3025859#7 -3025859#5 -3025859#3 -351684503 -351685326 -55290805 34243632#0 133875195#0 133875195#3 55290800 55290807 55290799 -133875223#19 -133875223#16 -133875223#10 gneE81 -133875223#4 -133875223#1 -133875223#0 -4357619 4340722#0 133875244#0 133875232#0 3381569#0 133875226#0 133875226#1 133875249#0 180869463#0 133875229 133875236#0 133875236#2 133875245#0 133875245#3" probability="3"/>