<?xml version="1.0" encoding="UTF-8"?>
<!-- generated on 2022-05-04 15:26:46.056434 by $Id$ UNKNOWN
  options: -r routes/basicRoutes.rou.xml -d expandedCounts.xml -o routes/sampledRoutes.rou.xml
-->
<routes xmlns:xsi="http://www.w3.org/2001/XMLSchema-instance" xsi:noNamespaceSchemaLocation="http://sumo.dlr.de/xsd/routes_file.xsd">
<!-- begin="0.0" end="3600.0" -->
    <vehicle id="0" depart="0.00">
        <route edges="-192668650#4 -192668650#2 -192668650#1 192668649#1 192668647 959553052#0 959553052#3 192674402#0 192674402#2 -48586336#2 240290973#0 -58295596#1 -192674701 -279357279#1 326284091 984881212 54401067 gneE72 -133875260#3 -133875262#1 -133875261#1 -3025859#8 -3025859#7 -3025859#5"/>
    </vehicle>
    <vehicle id="1" depart="0.42">
        <route edges="-2527#2 4644987#0"/>
    </vehicle>
    <vehicle id="2" depart="0.83">
        <route edges="-3026118#5 3025859#6 3025859#8 133875261#0 -3025839#7 -447465369 -2745#1"/>
    </vehicle>
    <vehicle id="3" depart="1.25">
        <route edges="133875262#0 133875260#0 48586818 gneE74 54401064 192674702#0 279357279#1 192674701 58295596#0 -240290973#1 48586336#1 -192674402#2 -192674402#1 -959553052#4 -959553052#2 -34784840#1 39183706 192668650#2 192668650#3 gneE13 3292444#0.4"/>
    </vehicle>
    <vehicle id="4" depart="1.66">
        <route edges="54401052#1 54401052#2 414017617 683648842#0 683648842#1 3024957 175773133 3024962 48207559 52030084#0 38964070#0 50842685#0"/>
    </vehicle>
    <vehicle id="5" depart="2.08">
        <route edges="-55290805 34243632#0 133875195#0 133875195#3 55290800 55290807 55290799 984881209 37777462 55290809#0 3441738#0 55290801 -2527#2 4644987#0 55296249#0 gneE91 4231695#0 252506895"/>
    </vehicle>
    <vehicle id="6" depart="2.50">
        <route edges="-899645883#4 -899645883#1 gneE11 3292445#0.4 3292445#3 209#0 55290798#0 210#1 30992002 -3120967#1 167257#2 884727976#0 gneE92 115952099#2 -30906#3 38619223#0 133875255 133875259#0 133875244#0 4338446#0 133875252#0 gneE97 -141841564#11"/>
    </vehicle>
    <vehicle id="7" depart="2.91">
        <route edges="-899645883#1 gneE11 3292445#0.4 3292445#3 209#0 2523#0 2524 39340468#0 39340468#1 4271799#1 8769450"/>
    </vehicle>
    <vehicle id="8" depart="3.33">
        <route edges="48207221 2742 52573120"/>
    </vehicle>
    <vehicle id="9" depart="3.74">
        <route edges="403281808"/>
    </vehicle>
    <vehicle id="10" depart="4.16">
        <route edges="55290798#0 210#1"/>
    </vehicle>
    <vehicle id="11" depart="4.57">
        <route edges="331545472#2 30992002 -3120967#1"/>
    </vehicle>
    <vehicle id="12" depart="4.99">
        <route edges="-2743#1 2748#0 -37777243#4 37777243#0 198245314#1 55296262 4479201#0 4346053 55290810 55290800 55290807 55290799 -133875223#19 -133875223#16 -133875223#10 gneE81 -133875223#4 -133875223#1 -133875223#0 -4357619 4340722#0 133875244#0 4338446#0 133875252#0 gneE97 -141841564#11 -5191097#3 403281810#0"/>
    </vehicle>
    <vehicle id="13" depart="5.41">
        <route edges="-133875260#3 -133875262#1 -133875261#1 -3025859#8 -3025859#7 -3025859#5 -3025859#3 -351684503 -351685326 -55290805 34243632#0 133875195#0 133875195#3 55290800 55290807 55290799 -133875223#19 -133875223#16 -133875223#10 gneE81 -3403171#1"/>
    </vehicle>
    <vehicle id="14" depart="5.82">
        <route edges="-gneE26 -gneE25 404611919#0 gneE51 -gneE52 -133875245#3 -133875245#2 -133875236#3 -133875236#1 -133875229 -180869463#1 -133875249#2 -133875226#2 -133875226#0 -3381569#3 94820#0 133875252#0 133875252#3 4338448#0 48665005 115952095#0 -546225667#1 -8769288#1 8769305 309842640#0 39352131#0 39352131#2"/>
    </vehicle>
    <vehicle id="15" depart="6.24">
        <route edges="54401067 gneE73 gneE74 54401064 984881214"/>
    </vehicle>
    <vehicle id="16" depart="6.65">
        <route edges="3086252#0 4321650 167283#0 167283#0.164 884727976#0 gneE92 115952099#2 -30906#3 38619223#0 133875255 4338449#0 4357619 133875223#0 133875223#1 4354018"/>
    </vehicle>
    <vehicle id="17" depart="7.07">
        <route edges="133875252#0 133875252#3 133875256#0 133875255 4338449#0 4357619 133875223#0 133875223#1 133875223#3 gneE82 133875223#6 133875223#11 133875223#17 984881209 37777462 55290809#0 3441738#0 55290801 4236439#0"/>
    </vehicle>
    <vehicle id="18" depart="7.49">
        <route edges="-837572187#0 -39352131#5 -39352131#2 3086250 4321650 167283#0 167283#0.164 -55602323#6 -gneE91 -55296249#2 -4644987#1 2527#0 4236439#0 4236439#1 3441067#0 55296262 4479201#0 4346053 3027099#0 505404870#0 351684045#0 -55290805 34243632#0 133875195#0"/>
    </vehicle>
    <vehicle id="19" depart="7.90">
        <route edges="gneE11 gneE12 -192668650#4 -192668650#2 -192668650#1 192668649#1 192668647 959553052#0 959553052#3 192674402#0 192674402#2 -48586336#2 240290973#0 -58295596#1 -192674701"/>
    </vehicle>
    <vehicle id="20" depart="8.32">
        <route edges="209#0"/>
    </vehicle>
    <vehicle id="21" depart="8.73">
        <route edges="-3026118#5 -3025859#5 -3025859#3 -351684503 -351685326 -55290805 34243632#0 133875195#0 133875195#3 55290800 55290807 55290799 -133875223#19 -133875223#16 -133875223#10 gneE81 -133875223#4 -133875223#1 -133875223#0 -4357619 4340722#0 133875244#0 133875232#0 3381569#0 133875226#0 133875226#1 133875249#0 180869463#0 133875229 133875236#0 133875236#2 133875245#0 133875245#3"/>
    </vehicle>
    <vehicle id="22" depart="9.15">
        <route edges="-133875245#3 -133875245#2 -133875236#3 -133875236#1 -133875229 -180869463#1 -133875249#2 -133875226#2 -133875226#0 -3381569#3 94820#0 133875252#0 133875252#3 4338448#0 48665005 115952095#0 -546225667#1 -8769288#1 3120967#0"/>
    </vehicle>
    <vehicle id="23" depart="9.57">
        <route edges="1040747475 55296264#1"/>
    </vehicle>
    <vehicle id="24" depart="9.98">
        <route edges="55290798#0 210#1"/>
    </vehicle>
    <vehicle id="25" depart="10.40">
        <route edges="2745#0 192671933#0 3025839#0 -133875261#1 -3025859#8 -3025859#7 -3025859#5 -3026116#5 -3026116#2"/>
    </vehicle>
    <vehicle id="26" depart="10.81">
        <route edges="55602323#3 55602323#3.91 -8769288#1 8769305 309842640#0 39352131#0"/>
    </vehicle>
    <vehicle id="27" depart="11.23">
        <route edges="52030081 52030084#0 2765"/>
    </vehicle>
    <vehicle id="28" depart="11.65">
        <route edges="48207221 2742 52573120"/>
    </vehicle>
    <vehicle id="29" depart="12.06">
        <route edges="4045612#0 4045612#1 3091989#1 -2524 30991997#1 1040747475 2757#1 1025513686#0 1025513686#1 2761 48173166#0 -899656225#3 -74552388#1 -899645883#4 3292451#0"/>
    </vehicle>
    <vehicle id="30" depart="12.48">
        <route edges="-133875236#3 -133875236#1 -133875229 -180869463#1 -133875249#2 -133875226#2 -133875226#0 -3381569#3 94820#0 133875252#0 133875252#3 4338448#0 48665005 115952095#0 -546225667#1 -8769288#1 3120967#0 773250139#1 331545472#2 3086259#0 3086261 3091989#1 -2524 30991997#1 1040747475 2757#1 1025513686#0 1025513686#1 2761 188924488#0 7985210#1"/>
    </vehicle>
    <vehicle id="31" depart="12.89">
        <route edges="48586336#1 -192674402#2 -192674402#1 -959553052#4 -959553052#2 -34784840#1 39183706 192668650#2 192668650#3 gneE13 gneE11 3292445#0.4 3292445#3 209#0 55290798#0 210#1 30992002 773250139#1 3086258"/>
    </vehicle>
    <vehicle id="32" depart="13.31">
        <route edges="1040747475 55296264#1"/>
    </vehicle>
    <vehicle id="33" depart="13.72">
        <route edges="48207221 2742 52573120"/>
    </vehicle>
    <vehicle id="34" depart="14.14">
        <route edges="192668649#1 192668647 -3024965#8 3024965#3 -34784840#1 39183706 192668650#2 192668650#3 gneE13 3292444#0.4 3292451#0 3292450"/>
    </vehicle>
    <vehicle id="35" depart="14.56">
        <route edges="-175773133 683583893 115353253#0 115353253#1 48206750 -54401052#2 -3024771"/>
    </vehicle>
    <vehicle id="36" depart="14.97">
        <route edges="-39352131#5 -39352131#2 -39352131#1 -3086257#1 -3086258 331545472#2 3086259#0 3086261 3091989#1 -2524 30991997#1 1040747475 2757#1 1025513686#0 1025513686#1 2761 188924488#0"/>
    </vehicle>
    <vehicle id="37" depart="15.39">
        <route edges="-175773133 683583893 115353253#0 115353253#1 48206750 -54401052#2 -3024771"/>
    </vehicle>
    <vehicle id="38" depart="15.80">
        <route edges="-3026118#5 -3025859#5 -3025859#3 -351684503 -351685326 -55290805 34243632#0 133875195#0 133875195#3 55290800 55290807 55290799 -133875223#19 -133875223#16 -133875223#10 gneE81 -3403171#1"/>
    </vehicle>
    <vehicle id="39" depart="16.22">
        <route edges="133875252#3 4338448#0 48665005 115952095#0 -546225667#1 -8769288#1 3120967#0 773250139#1 331545472#2 3086259#0 3086261 3091989#1"/>
    </vehicle>
    <vehicle id="40" depart="16.64">
        <route edges="2745#0 192671933#0 3025839#0 -133875261#1 -3025859#8 -3025859#7 -3025859#5 -3026116#5"/>
    </vehicle>
    <vehicle id="41" depart="17.05">
        <route edges="59661910#0 3441067#0 55296262 4479201#0 4346053 55290810 55290800 55290807 55290799 -133875223#19 -133875223#16 -133875223#10 gneE81 -133875223#4 -133875223#1 -133875223#0 -4357619 4340722#0 133875244#0 133875232#0 3381569#0 133875226#0 940770422#0 553586920#0"/>
    </vehicle>
    <vehicle id="42" depart="17.47">
        <route edges="167160#0 gneE91 55602323#3 55602323#3.91 -8769288#1 8769305 -4231711"/>
    </vehicle>
    <vehicle id="43" depart="17.88">
        <route edges="5191097#2 141841564#7 -gneE97 133875252#3 4338448#0 48665005 115952095#0 -546225667#1 -8769288#1 3120967#0 773250139#1 331545472#2 3086259#0 3086261 3091989#1 -2524"/>
    </vehicle>
    <vehicle id="44" depart="18.30">
        <route edges="2523#0"/>
    </vehicle>
    <vehicle id="45" depart="18.72">
        <route edges="-4231696#0 -4231695#2 55602323#3 55602323#3.91 -8769288#1 3120967#0 773250139#1 331545472#2 3086259#0 3086261 3091989#1 -2524 30991997#1 1040747475 2757#1 1025513686#0 1025513686#1 2761 48173166#0 -899656225#3 3292446"/>
    </vehicle>
    <vehicle id="46" depart="19.13">
        <route edges="167283#0 167283#0.164 884727976#0 gneE92 115952099#2 -30906#3 38619223#0 133875255 133875259#0 133875244#0"/>
    </vehicle>
    <vehicle id="47" depart="19.55">
        <route edges="3086252#0 4321650 167283#0 167283#0.164 884727976#0 gneE92 115952099#2 -30906#3 38619223#0 133875255 133875259#0 133875244#0 133875232#0 3381569#0 133875226#0 133875226#1 133875249#0"/>
    </vehicle>
    <vehicle id="48" depart="19.96">
        <route edges="-55290805 34243632#0 133875195#0 133875195#3 55290800 55290807 55290799 984881209 37777462 55290809#0 3441738#0 55290801 -2527#2"/>
    </vehicle>
    <vehicle id="49" depart="20.38">
        <route edges="-279357279#1 326284091 984881212 54401067 gneE72 -133875260#3 -133875262#1 -133875261#1 -3025859#8 -3025859#7 -3025859#5 -3025859#3 -351684503 -351685326 -55290805 34243632#0 133875195#0 133875195#3 55290800 55290807 55290799 -133875223#19 -133875223#16 -133875223#10 gneE81 -133875223#4 -133875223#1 -133875223#0 -4357619 4340722#0 133875244#0 4338446#0 133875252#0 gneE97"/>
    </vehicle>
    <vehicle id="50" depart="20.79">
        <route edges="gneE51 -gneE52 -133875245#3 -133875245#2 -133875236#3 -133875236#1 -133875229 -180869463#1 -133875249#2 -133875226#2 -133875226#0 -3381569#3 94820#0 133875252#0 133875252#3 133875256#0 133875255 4338449#0 4357619 133875223#0 133875223#1 133875223#3 gneE82 133875223#6 133875223#11 133875223#17 984881209 37777462 55290809#0 3441738#0 55290801 4236439#0 4236439#1 3441067#0 -203240967#2 -198245314#0"/>
    </vehicle>
    <vehicle id="51" depart="21.21">
        <route edges="-2524 30991997#1 1040747475 2757#1 1025513686#0 1025513686#1"/>
    </vehicle>
    <vehicle id="52" depart="21.63">
        <route edges="-837572187#0 -39352131#5 -39352131#2 3086250 4321650 167283#0 167283#0.164 884727976#0 gneE92 115952099#2 -30906#3"/>
    </vehicle>
    <vehicle id="53" depart="22.04">
        <route edges="209#0"/>
    </vehicle>
    <vehicle id="54" depart="22.46">
        <route edges="331545472#2 30992002 -3120967#1"/>
    </vehicle>
    <vehicle id="55" depart="22.87">
        <route edges="2742 52573120 55290813#0 -4279571 -175773133 683583893 115353253#0 115353253#1 683648843 683648842#0"/>
    </vehicle>
    <vehicle id="56" depart="23.29">
        <route edges="3024961 -192674402#1 -959553052#4 -959553052#2 -34784840#1 39183706 192668650#2 192668650#3 gneE13 gneE11 3292445#0.4 3292445#3 209#0 55290798#0 210#1 30992002 -3120967#1 167257#2 884727976#0 gneE92 115952099#2 -30906#3 38619223#0 133875255 133875259#0 133875244#0 133875232#0 3381569#0 133875226#0 133875226#1 133875249#0"/>
    </vehicle>
    <vehicle id="57" depart="23.71">
        <route edges="-gneE97 133875252#3 4338448#0 48665005 115952095#0 3441624#0 167160#0 gneE91 4231695#0 4231695#3 4231696#1"/>
    </vehicle>
    <vehicle id="58" depart="24.12">
        <route edges="26312537#3 2743#0 -2743#1 2748#0 -37777243#4 37777243#0 198245314#1 55296262 197960551 55290809#0 3441738#0 55290801 -2527#2 4644987#0 55296249#0 gneE91 4231695#0 4231695#3 4231696#1"/>
    </vehicle>
    <vehicle id="59" depart="24.54">
        <route edges="39348546#0 52573118#0 2755#0"/>
    </vehicle>
    <vehicle id="60" depart="24.95">
        <route edges="55602323#3 55602323#3.91 884727976#0 gneE92 115952099#2 -30906#3 38619223#0 133875255 133875259#0 133875244#0 133875232#0 3381569#0 133875226#0 133875226#1 133875249#0 180869463#0 133875229 133875236#0 133875236#2 133875245#0 133875245#3 gneE52 gneE52.55 -gneE51"/>
    </vehicle>
    <vehicle id="61" depart="25.37">
        <route edges="55602323#3 55602323#3.91 -8769288#1 3120967#0 773250139#1 331545472#2 -210#1 -55290798#2"/>
    </vehicle>
    <vehicle id="62" depart="25.79">
        <route edges="gneE91 55602323#3 55602323#3.91 884727976#0 gneE92 115952099#2 -30906#3 38619223#0 133875255 133875259#0 133875244#0 133875232#0 3381569#0 133875226#0 133875226#1 133875249#0 180869463#0 133875229 133875236#0 133875236#2 133875245#0 133875245#3 gneE52 gneE52.55"/>
    </vehicle>
    <vehicle id="63" depart="26.20">
        <route edges="133875195#3 55290800 55290807 55290799 984881209 37777462 55290809#0 3441738#0 55290801 -2527#2 4644987#0 55296249#0 gneE91 55602323#3 55602323#3.91 -8769288#1 8769305 309842640#0 39352131#0 39352131#2 39352131#3 837572187#0 837572187#1 837573373#0"/>
    </vehicle>
    <vehicle id="64" depart="26.62">
        <route edges="-133875223#4 -133875223#1 -133875223#0 -4357619 4340722#0 133875244#0 4338446#0 133875252#0 133875252#3 4338448#0 48665005 115952095#0 -546225667#1 -8769288#1 8769305 309842640#0 39352131#0 39352131#2 39352131#3 837572187#0 3600469#0"/>
    </vehicle>
    <vehicle id="65" depart="27.03">
        <route edges="52030081 52030084#0 2765"/>
    </vehicle>
    <vehicle id="66" depart="27.45">
        <route edges="-133875226#0 -3381569#3 94820#0 133875252#0 133875252#3 4338448#0 48665005 115952095#0 -546225667#1 -8769288#1 3120967#0 773250139#1 331545472#2 3086259#0 3086261 3091989#1 -2524 30991997#1 1040747475 2757#1 1025513686#0 1025513686#1 2761"/>
    </vehicle>
    <vehicle id="67" depart="27.87">
        <route edges="-2524 30991997#1 1040747475 2757#1 1025513686#0 1025513686#1"/>
    </vehicle>
    <vehicle id="68" depart="28.28">
        <route edges="3024962 48207559 52030084#0 38964070#0 39348547#1 -3609801#3 2748#0 -37777243#4 37777243#0 198245314#1 55296262 4479201#0 4346053 55290810 55290800 55290807 55290799 -133875223#19 -133875223#16 -133875223#10 4479202#0"/>
    </vehicle>
    <vehicle id="69" depart="28.70">
        <route edges="55290798#0 210#1"/>
    </vehicle>
    <vehicle id="70" depart="29.11">
        <route edges="52573120 55290813#0 -4279571 -175773133 683583893 115353253#0 115353253#1 48206750"/>
    </vehicle>
    <vehicle id="71" depart="29.53">
        <route edges="3026120 -351684503 -351685326 -55290805 34243632#0 133875195#0 133875195#3 55290800 55290807 55290799 984881209 37777462 55290809#0"/>
    </vehicle>
    <vehicle id="72" depart="29.94">
        <route edges="-3026119#2 -3026194#1"/>
    </vehicle>
    <vehicle id="73" depart="30.36">
        <route edges="899645883#5"/>
    </vehicle>
    <vehicle id="74" depart="30.78">
        <route edges="-180869463#1 -133875249#2 -133875226#2 -133875226#0 -3381569#3 94820#0 133875252#0 133875252#3 4338448#0 48665005 115952095#0 -546225667#1 -8769288#1 3120967#0 773250139#1 331545472#2 3086259#0"/>
    </vehicle>
    <vehicle id="75" depart="31.19">
        <route edges="2523#0 30991997#1 1040747475 55296264#1 55290812#0 48207221 2742 52573120 52030081 52030084#0 38964070#0 39348547#1 -3609801#3 2743#0 2743#2"/>
    </vehicle>
    <vehicle id="76" depart="31.61">
        <route edges="3026120 -351684503 -351685326 -55290805 34243632#0 133875195#0 133875195#3 55290800 55290807 55290799 984881209 37777462 55290809#0 3441738#0 55290801 -2527#2 4644987#0 55296249#0 gneE91 55602323#3 55602323#3.91 -8769288#1 8769305 32751327"/>
    </vehicle>
    <vehicle id="77" depart="32.02">
        <route edges="2757#1 1025513686#0 1025513686#1 188924487#0 209#0 55290798#0 210#1 30992002 -3120967#1 167257#2 -55602323#6 -gneE91 26753071 -39264086"/>
    </vehicle>
    <vehicle id="78" depart="32.44">
        <route edges="-39352131#2 3086250 4321650 167283#0 167283#0.164 -55602323#6 -gneE91 -55296249#2 -4644987#1 2527#0 4236439#0 39333603 -3441740#1"/>
    </vehicle>
    <vehicle id="79" depart="32.86">
        <route edges="-175773133 683583893 115353253#0 3024958#0 -677916434"/>
    </vehicle>
    <vehicle id="80" depart="33.27">
        <route edges="3026116#3 3025859#5 3025859#6 3025859#8 133875261#0 -3025839#7 -447465369 -2745#1 -39348547#2 39348546#0 52573118#0 2755#0 48207220 52573120 52030081"/>
    </vehicle>
    <vehicle id="81" depart="33.69">
        <route edges="2757#0 2757#1 1025513686#0 1025513686#1 188924487#0 209#0 55290798#0 210#1 30992002 -3120967#1 167257#2 884727976#0 gneE92 115952099#2 -30906#3 38619223#0 133875255 133875259#0 133875244#0 4338446#0"/>
    </vehicle>
    <vehicle id="82" depart="34.10">
        <route edges="209#0"/>
    </vehicle>
    <vehicle id="83" depart="34.52">
        <route edges="3086250 4321650 167283#0 167283#0.164 -55602323#6 -gneE91 -55296249#2 -4644987#1 2527#0 4236439#0 4236439#1 3441067#0 55296262 4479201#0 4346053 3027099#0 505404870#0 351684045#0 133875181#0 351684503 3025859#0 -3026116#5"/>
    </vehicle>
    <vehicle id="84" depart="34.94">
        <route edges="-3086247 -39352131#2 3086250 4321650 167283#0 167283#0.164 884727976#0 gneE92 115952099#2 -30906#3 38619223#0 133875255 133875259#0 133875244#0 133875232#0 3381569#0 133875226#0 133875226#1 133875249#0 180869463#0 133875229 133875236#0 133875236#2 133875245#0 133875245#3 gneE52 gneE52.55 -gneE53"/>
    </vehicle>
    <vehicle id="85" depart="35.35">
        <route edges="1040747475 55296264#1"/>
    </vehicle>
    <vehicle id="86" depart="35.77">
        <route edges="48207221 2742 52573120"/>
    </vehicle>
    <vehicle id="87" depart="36.18">
        <route edges="5191097#2 141841564#7 -gneE97 133875252#3 4338448#0 48665005 115952095#0 -546225667#1 -8769288#1 3120967#0 773250139#1 331545472#2 3086259#0 3086261 3091989#1 -2524 30991997#1 1040747475 2757#1 1025513686#0"/>
    </vehicle>
    <vehicle id="88" depart="36.60">
        <route edges="2757#1 1025513686#0 1025513686#1 188924487#0 209#0 55290798#0 210#1 30992002 773250139#1 3086258"/>
    </vehicle>
    <vehicle id="89" depart="37.01">
        <route edges="209#0"/>
    </vehicle>
    <vehicle id="90" depart="37.43">
        <route edges="52573120 52030081"/>
    </vehicle>
    <vehicle id="91" depart="37.85">
        <route edges="-8769288#1 8769305 309842640#0 39352131#0 39352131#2 39352131#3"/>
    </vehicle>
    <vehicle id="92" depart="38.26">
        <route edges="3025859#0 3025859#5 3025859#6 3025859#8 133875261#0 -3025839#7 -447465369 -2745#1 -39348547#2"/>
    </vehicle>
    <vehicle id="93" depart="38.68">
        <route edges="331545472#2 -210#1 -55290798#2 -209#3 -3292445#8 -3292445#2 gneE12 -192668650#4 -192668650#2 -192668650#1 192668649#1 192668647"/>
    </vehicle>
    <vehicle id="94" depart="39.09">
        <route edges="58295596#0 -240290973#1 48586336#1 -192674402#2 -192674402#1 -959553052#4 -959553052#2 -34784840#1 39183706 192668650#2 192668650#3 gneE13 gneE11 3292445#0.4 3292445#3 209#0 55290798#0 210#1 30992002 -3120967#1 167257#2"/>
    </vehicle>
    <vehicle id="95" depart="39.51">
        <route edges="gneE91 55602323#3 55602323#3.91 -8769288#1 3120967#0 773250139#1 331545472#2 -210#1 -gneE54"/>
    </vehicle>
    <vehicle id="96" depart="39.93">
        <route edges="gneE53"/>
    </vehicle>
    <vehicle id="97" depart="40.34">
        <route edges="133875195#0 133875195#3 55290800 55290807 55290799 -133875223#19 -133875223#16 -133875223#10 gneE81 -133875223#4 -133875223#1 -133875223#0 -4357619 4340722#0 133875244#0 133875232#0 3381569#0 133875226#0 940770422#0 553586920#0"/>
    </vehicle>
    <vehicle id="98" depart="40.76">
        <route edges="683648842#1 3024957 175773133 3024966#0 3024965#0"/>
    </vehicle>
    <vehicle id="99" depart="41.17">
        <route edges="-133875249#2 -133875226#2 -133875226#0 -3381569#3 94820#0 133875252#0 133875252#3 133875256#0 133875255 4338449#0 4357619 133875223#0 133875223#1 133875223#3 gneE82 133875223#6 133875223#11 133875223#17 984881209 55290796 4346053 3027099#0 505404870#0 351684045#0 133875181#0 351684503 3025859#0 -3026116#5 -54516245#0"/>
    </vehicle>
    <vehicle id="100" depart="41.59">
        <route edges="4338446#0 133875252#0 133875252#3 4338448#0 48665005 115952095#0 3441624#0 167160#0 gneE91 4231695#0 4231695#3 4231696#1 -4231696#1 -416688557"/>
    </vehicle>
    <vehicle id="101" depart="42.01">
        <route edges="209#0"/>
    </vehicle>
    <vehicle id="102" depart="42.42">
        <route edges="837573373#2 837573373#4 444272568#1 -gneE28 -gneE45 -gneE43 -gneE26 -gneE25 404611919#0 gneE51 -gneE52 -133875245#3 -133875245#2 -133875236#3 -133875236#1 -133875229 -180869463#1 -133875249#2 -133875226#2 -133875226#0 -3381569#3 94820#0 133875252#0 133875252#3 4338448#0 48665005 115952095#0 -546225667#1 -8769288#1 3120967#0 773250139#1 331545472#2 3086259#0 3086261 3091989#1 -2524 30991997#1 1040747475 55296264#1 55290812#0 48207221 2742 52573120 55290813#0 -4279571 -175773133 683583893 115353253#0 115353253#1 48206750 -54401052#2 -54401052#1 -54401052#0 -54649790 373843895"/>
    </vehicle>
    <vehicle id="103" depart="42.84">
        <route edges="198245314#1 55296262 197960551 55290809#0 3441738#0 55290801 -2527#2 4644987#0 55296249#0 gneE91 55602323#3 55602323#3.91 -8769288#1 8769305 309842640#0 39352131#0 39352131#2 39352131#3 837572187#0 837572187#1 837573373#0 837573373#2 837573373#4 444272568#1 -gneE28 gneE33"/>
    </vehicle>
    <vehicle id="104" depart="43.25">
        <route edges="-3086247 -39352131#2 3086250 4321650 167283#0 167283#0.164 -55602323#6 -57962409 -822839889"/>
    </vehicle>
    <vehicle id="105" depart="43.67">
        <route edges="gneE11 3292445#0.4 3292445#3 209#0 55290798#0 210#1 30992002 -3120967#1 8769305 309842640#0 39352131#0 39352131#2 39352131#3 837572187#0 837572187#1 837573373#0 837573373#2 837573373#4 444272568#1 -gneE28 gneE33"/>
    </vehicle>
    <vehicle id="106" depart="44.09">
        <route edges="984881212 54401067 gneE73 gneE74 54401064 192674702#0 279357279#1 192674701 58295596#0 -240290973#1 48586336#1 -192674402#2 -192674402#1 -959553052#4 -959553052#2 -34784840#1 39183706 192668650#2 192668650#3 gneE13 gneE11 3292445#0.4 3292445#3 209#0 55290798#0 210#1"/>
    </vehicle>
    <vehicle id="107" depart="44.50">
        <route edges="-55290805 34243632#0 133875195#0 133875195#3 55290800 55290807 55290799 984881209 37777462 55290809#0 3441738#0 55290801 -2527#2"/>
    </vehicle>
    <vehicle id="108" depart="44.92">
        <route edges="331545472#2 30992002 -3120967#1"/>
    </vehicle>
    <vehicle id="109" depart="45.33">
        <route edges="133875262#0 133875260#0 48586818 gneE74 54401064 192674702#0 279357279#1 192674701 58295596#0 -240290973#1 3024960#0 3024959#0"/>
    </vehicle>
    <vehicle id="110" depart="45.75">
        <route edges="209#0"/>
    </vehicle>
    <vehicle id="111" depart="46.16">
        <route edges="-133875249#2 -133875226#2 -133875226#0 -3381569#3 94820#0 133875252#0 133875252#3 4338448#0 48665005 115952095#0 -546225667#1 -8769288#1 3120967#0 773250139#1 331545472#2 3086259#0 3086261 3091989#1 -2524 30991997#1 1040747475 2757#1 1025513686#0 1025513686#1 2761 188924488#0"/>
    </vehicle>
    <vehicle id="112" depart="46.58">
        <route edges="959553052#0"/>
    </vehicle>
    <vehicle id="113" depart="47.00">
        <route edges="-54401052#2 -54401052#1 -54401052#0 -54649790 373843895 48586336#1 -192674402#2 -192674402#1 -959553052#4 -959553052#2 -34784840#1 39183706 192668650#2"/>
    </vehicle>
    <vehicle id="114" depart="47.41">
        <route edges="167283#0.164 884727976#0 gneE92 115952099#2 -30906#3 38619223#0 133875255 4338449#0"/>
    </vehicle>
    <vehicle id="115" depart="47.83">
        <route edges="1040747475 55296264#1"/>
    </vehicle>
    <vehicle id="116" depart="48.24">
        <route edges="55296249#0 gneE91 55602323#3 55602323#3.91 884727976#0 gneE92 115952099#2 -30906#3 38619223#0 133875255 133875259#0 133875244#0 133875232#0 3381569#0 133875226#0 133875226#1"/>
    </vehicle>
    <vehicle id="117" depart="48.66">
        <route edges="55290813#0 -4279571 -175773133 683583893 115353253#0 115353253#1 48206750 -54401052#2 -3024771 -2960931#0 326284103 54401064 984881214 984881212 48586824"/>
    </vehicle>
    <vehicle id="118" depart="49.08">
        <route edges="38619223#0 133875255 133875259#0 133875244#0 133875232#0 3381569#0 133875226#0 133875226#1 133875249#0 180869463#0 133875229 133875236#0 133875236#2 133875245#0 133875245#3 gneE52 gneE52.55 -gneE51 -404611919#1 gneE25 gneE26 gneE43 gneE45 gneE28 3098972#0"/>
    </vehicle>
    <vehicle id="119" depart="49.49">
        <route edges="-55290805 34243632#0 133875195#0 133875195#3 55290800 55290807 55290799 -133875223#19 -133875223#16 -133875223#10 gneE81 -133875223#4 -133875223#1 -133875223#0 -4357619 4340722#0 133875244#0 133875232#0 3381569#0 133875226#0 133875226#1"/>
    </vehicle>
    <vehicle id="120" depart="49.91">
        <route edges="2757#0 2757#1 1025513686#0 1025513686#1 188924487#0 209#0 55290798#0 210#1 30992002 -3120967#1 8769305"/>
    </vehicle>
    <vehicle id="121" depart="50.32">
        <route edges="54401052#2 414017617 683648842#0 683648842#1 3024957 175773133 3024962 48207559 52030084#0 38964070#0 39348547#1 -3609801#3 2743#0 -2743#1 -26312537#4"/>
    </vehicle>
    <vehicle id="122" depart="50.74">
        <route edges="-2960931#0 326284103 54401064 984881214 984881212 54401067 gneE72 -133875260#3 -133875262#1 -133875261#1 -3025859#8 -3025859#7 -3025859#5 -3026116#5 -3026116#2"/>
    </vehicle>
    <vehicle id="123" depart="51.16">
        <route edges="2745#0 192671933#0 3025839#0 -133875261#1 -3025859#8 -3025859#7 -3025859#5 -3026116#5"/>
    </vehicle>
    <vehicle id="124" depart="51.57">
        <route edges="2745#0 192671933#0 3025839#0 -133875261#1 -3025859#8 -3025859#7 -3025859#5 -3026116#5 -3026116#2"/>
    </vehicle>
    <vehicle id="125" depart="51.99">
        <route edges="210#1 30992002 -3120967#1 167257#2 884727976#0 gneE92 115952099#2 -30906#3 38619223#0 133875255 133875259#0 133875244#0 4338446#0 133875252#0 gneE97"/>
    </vehicle>
    <vehicle id="126" depart="52.40">
        <route edges="-133875226#0 -3381569#3 94820#0 133875252#0 133875252#3 4338448#0 48665005 115952095#0 -546225667#1 -8769288#1"/>
    </vehicle>
    <vehicle id="127" depart="52.82">
        <route edges="209#0"/>
    </vehicle>
    <vehicle id="128" depart="53.23">
        <route edges="54401052#1 54401052#2 414017617 683648842#0 683648842#1 3024957 175773133 3024962 48207559 52030084#0 38964070#0 50842685#0"/>
    </vehicle>
    <vehicle id="129" depart="53.65">
        <route edges="-2524 30991997#1 1040747475 2757#1 1025513686#0 1025513686#1 188924487#0 -3292445#8 -3292445#2 gneE12 -192668650#4 -192668650#2 -192668650#1 192668649#1 192668647"/>
    </vehicle>
    <vehicle id="130" depart="54.07">
        <route edges="-3026118#5 3025859#6 3025859#8 133875261#0 -3025839#7 -447465369 -2745#1"/>
    </vehicle>
    <vehicle id="131" depart="54.48">
        <route edges="-133875223#1 -133875223#0 -4357619 4340722#0 133875244#0 4338446#0 133875252#0 133875252#3 4338448#0 48665005 115952095#0 -546225667#1 -8769288#1 3120967#0 773250139#1 331545472#2 -210#1 -55290798#2 -209#3 -3292445#8 -3292445#2 gneE12 gneE13"/>
    </vehicle>
    <vehicle id="132" depart="54.90">
        <route edges="-2524 30991997#1 1040747475 2757#1 1025513686#0 1025513686#1"/>
    </vehicle>
    <vehicle id="133" depart="55.31">
        <route edges="3025482#2 959553052#3 192674402#0 192674402#2 -48586336#2 240290973#0 -58295596#1 -192674701 -279357279#1 326284091 984881212 54401067 gneE72 -133875260#3 -133875262#1 -133875261#1 -3025859#8 -3025859#7 -3025859#5 -3025859#3 -351684503 -351685326 -55290805 34243632#0 133875195#0 133875195#3 55290800 55290807 55290799 -133875223#19 -133875223#16 -133875223#10 4479202#0 -2958843#0"/>
    </vehicle>
    <vehicle id="134" depart="55.73">
        <route edges="-gneE91 -55296249#2 -4644987#1 2527#0 4236439#0 4236439#1 3441067#0 55296262 4479201#0 4346053 3027099#0 505404870#0 351684045#0 133875181#0 351684503 3025859#0 -3026116#5 -54516245#0 -3026119#2"/>
    </vehicle>
    <vehicle id="135" depart="56.15">
        <route edges="52030081 52030084#0 2765"/>
    </vehicle>
    <vehicle id="136" depart="56.56">
        <route edges="133875236#0 133875236#2 133875245#0 133875245#3 gneE52 gneE52.55 -gneE51 -404611919#1"/>
    </vehicle>
    <vehicle id="137" depart="56.98">