<?xml version="1.0" encoding="UTF-8"?>
<!-- generated on 2022-05-03 18:12:36.756438 by $Id$ UNKNOWN
  options: -r routes/basicRoutes.rou.xml -d countData.xml -o routes/sampledRoutes.rou.xml
-->
<routes xmlns:xsi="http://www.w3.org/2001/XMLSchema-instance" xsi:noNamespaceSchemaLocation="http://sumo.dlr.de/xsd/routes_file.xsd">
<!-- begin="0.0" end="3600.0" -->
    <vehicle id="0" depart="0.00">
        <route edges="34243632#0 133875195#0 133875195#3 55290800 55290807 55290799 984881209 37777462 55290809#0 3441738#0 55290801 -2527#2 4644987#0 55296249#0 gneE91 55602323#3 55602323#3.91 -8769288#1 8769305 309842640#0 39352131#0 39352131#2 39352131#3 837572187#0"/>
    </vehicle>
    <vehicle id="1" depart="1.78">
        <route edges="gneE54 210#1 3086259#0 3086261 3091989#1 -2524 30991997#1 1040747475 55296264#1 55290812#0 48207221 2742 52573120 52030081 52030084#0 38964070#0 50842685#0 50842685#1 2745#0 192671933#0 3025839#0 -133875261#1 -3025859#8 -3025859#7 -3025859#5 -3026116#5 -54516245#0 -3026119#2"/>
    </vehicle>
    <vehicle id="2" depart="3.55">
        <route edges="-351685326 -55290805 34243632#0 133875195#0 133875195#3 55290800 55290807 55290799 984881209 37777462 55290809#0 3441738#0 55290801 -2527#2 4644987#0 55296249#0 gneE91 55602323#3 55602323#3.91 -8769288#1 8769305 309842640#0 39352131#0 39352131#2 39352131#3 837572187#0 837572187#1 837573373#0"/>
    </vehicle>
    <vehicle id="3" depart="5.33">
        <route edges="837573373#4 444272568#1 -gneE28 -gneE45 -gneE43 -gneE26 -gneE25 404611919#0 gneE51 -gneE52 -133875245#3 -133875245#2 -133875236#3 -133875236#1 -133875229 -180869463#1 -133875249#2 -133875226#2 -133875226#0 -3381569#3 94820#0 133875252#0 133875252#3 4338448#0 48665005 115952095#0 -546225667#1 -8769288#1 3120967#0 773250139#1 331545472#2"/>
    </vehicle>
    <vehicle id="4" depart="7.10">
        <route edges="-3024966#1 3024962 48207559 52030084#0 38964070#0 39348547#1 -3609801#3 2748#0 -37777243#4 37777243#0 198245314#1 55296262 4479201#0 4346053 55290810 55290800 55290807 55290799 -133875223#19 -133875223#16 -133875223#10 4479202#0"/>
    </vehicle>
    <vehicle id="5" depart="8.88">
        <route edges="-gneE52 -133875245#3 -133875245#2 -133875236#3 -133875236#1 -133875229 -180869463#1 -133875249#2 -133875226#2 -133875226#0 -3381569#3 94820#0 133875252#0 133875252#3 4338448#0 48665005 115952095#0 -546225667#1 -8769288#1 3120967#0 773250139#1 331545472#2 3086259#0 3086261 3091989#1 -2524 30991997#1 1040747475 55296264#1 55290812#0 48207221 2742 52573120 55290813#0 -4279571 -175773133 683583893 115353253#0 115353253#1 48206750 -54401052#2 -3024771 -2960931#0 326284103 54401064 984881214"/>
    </vehicle>
    <vehicle id="6" depart="10.66">
        <route edges="-54516245#0 3026120 -351684503 -351685326 -55290805 34243632#0 133875195#0 133875195#3 55290800 55290807 55290799 984881209 37777462 55290809#0 3441738#0 55290801 -2527#2 4644987#0 55296249#0 gneE91 55602323#3 55602323#3.91 -8769288#1 8769305 309842640#0 39352131#0"/>
    </vehicle>
    <vehicle id="7" depart="12.43">
        <route edges="-39645355#0 837573373#4 444272568#1 -gneE28 -gneE45 -gneE43 -gneE26 -gneE25 404611919#0 gneE51 -gneE52 -133875245#3 -133875245#2 -133875236#3 -133875236#1 -133875229 -180869463#1 -133875249#2 -133875226#2 -133875226#0 -3381569#3 94820#0 133875252#0 133875252#3 4338448#0 48665005 115952095#0 3441624#0 167160#0 -55296249#2"/>
    </vehicle>
    <vehicle id="8" depart="14.21">
        <route edges="-2955307#1 -3026118#5 -3025859#5 -3025859#3 -351684503 -351685326 -55290805 34243632#0 133875195#0 133875195#3 55290800 55290807 55290799 984881209 37777462 55290809#0 3441738#0 55290801 -2527#2 4644987#0 55296249#0"/>
    </vehicle>
    <vehicle id="9" depart="15.98">
        <route edges="984881209 37777462 55290809#0 3441738#0 55290801 4236439#0 4236439#1 3441067#0 -203240967#2 -198245314#0 3609801#1 -39348547#2 50842685#0"/>
    </vehicle>
    <vehicle id="10" depart="17.76">
        <route edges="55290807 55290799 984881209 37777462 55290809#0 3441738#0 55290801 -2527#2 4644987#0 55296249#0 gneE91 55602323#3 55602323#3.91 -8769288#1 3120967#0 773250139#1 331545472#2 30992002 3126772#0"/>
    </vehicle>
    <vehicle id="11" depart="19.54">
        <route edges="-58295596#1 -192674701 -279357279#1 326284091 984881212 54401067 gneE72 -133875260#3 -133875262#1 -133875261#1 -3025859#8 -3025859#7 -3025859#5 -3025859#3 -351684503 -351685326 -55290805 34243632#0 133875195#0 133875195#3 55290800 55290807 55290799 984881209 37777462 55290809#0 3441738#0 55290801 -2527#2 4644987#0 55296249#0 gneE91 55602323#3"/>
    </vehicle>
    <vehicle id="12" depart="21.31">
        <route edges="-2745#1 -3609801#3 2748#0 -37777243#4 37777243#0 198245314#1 55296262 4479201#0 4346053 55290810 55290800 3027057"/>
    </vehicle>
    <vehicle id="13" depart="23.09">
        <route edges="984881209 37777462 55290809#0 3441738#0 55290801 -2527#2 4644987#0 55296249#0 gneE91 55602323#3 55602323#3.91 -8769288#1 3120967#0 773250139#1 331545472#2 -210#1 -gneE54"/>
    </vehicle>
    <vehicle id="14" depart="24.86">
        <route edges="-3026118#5 -3025859#5 -3025859#3 -351684503 -351685326 -55290805 34243632#0 133875195#0 133875195#3 55290800 55290807 55290799 984881209 37777462 55290809#0 3441738#0 55290801 -2527#2 4644987#0 55296249#0 gneE91 55602323#3 55602323#3.91 -8769288#1 8769305 32751327"/>
    </vehicle>
    <vehicle id="15" depart="26.64">
        <route edges="-54516245#1 -54516245#0 3026120 -351684503 -351685326 -55290805 34243632#0 133875195#0 133875195#3 55290800 55290807 55290799 984881209 37777462 55290809#0 3441738#0 55290801 -2527#2 4644987#0 55296249#0 gneE91 55602323#3 55602323#3.91"/>
    </vehicle>
    <vehicle id="16" depart="28.42">
        <route edges="42164793 57962409 -gneE91 -55296249#2 -4644987#1 2527#0 4236439#0 4236439#1 3441067#0 55296262 4479201#0 4346053 3027099#0 505404870#0 351684045#0 -55290805 34243632#0 133875195#0"/>
    </vehicle>
    <vehicle id="17" depart="30.19">
        <route edges="-39645355#1 -39645355#0 837573373#4 444272568#1 -gneE28 -gneE45 -gneE43 -gneE26 -gneE25 404611919#0 gneE51 -gneE52 -133875245#3 -133875245#2 -133875236#3 -133875236#1 -133875229 -180869463#1 -133875249#2 -133875226#2 -133875226#0 -3381569#3 94820#0 133875252#0 133875252#3 4338448#0 48665005 115952095#0 3441624#0 167160#0 gneE91 -57962409"/>
    </vehicle>
    <vehicle id="18" depart="31.97">
        <route edges="3024957 175773133 3024962 48207559 52030084#0 38964070#0 39348547#1 -3609801#3 2748#0 -37777243#4 37777243#0 198245314#1 55296262 4479201#0 4346053 55290810 55290800 55290807 55290799 -133875223#19 -133875223#16 -133875223#10"/>
    </vehicle>
    <vehicle id="19" depart="33.74">
        <route edges="-4231695#2 55602323#3 55602323#3.91 -8769288#1 8769305 309842640#0 39352131#0 39352131#2 39352131#3 837572187#0 837572187#1 837573373#0 837573373#2 837573373#4 444272568#1 -gneE28 gneE33"/>
    </vehicle>
    <vehicle id="20" depart="35.52">
        <route edges="26312537#3 2743#0 -2743#1 2748#0 -37777243#4 37777243#0 198245314#1 55296262 4479201#0 4346053 55290810 55290800 55290807 55290799 -133875223#19 -133875223#16 -133875223#10 gneE81 -133875223#4 -133875223#1 -133875223#0 -4357619 4340722#0 133875244#0 4338446#0 133875252#0 gneE97"/>
    </vehicle>
    <vehicle id="21" depart="37.30">
        <route edges="37728001#0 55290801 4236439#0 4236439#1 3441067#0 55296262 4479201#0 4346053 3027099#0 505404870#0 351684045#0 133875181#0 351684503 3025859#0 3025859#5 3025859#6 3025859#8 133875261#0 133875262#0 133875260#0 48586818 gneE74 54401064 192674702#0 279357279#1 192674701 58295596#0 -240290973#1 3024960#0"/>
    </vehicle>
    <vehicle id="22" depart="39.07">
        <route edges="gneE54 210#1 30992002 -3120967#1 8769305 309842640#0 39352131#0 39352131#2 39352131#3 837572187#0 837572187#1 837573373#0 837573373#2 837573373#4 444272568#1 -gneE28 -gneE45"/>
    </vehicle>
    <vehicle id="23" depart="40.85">
        <route edges="-4231711 -3086258 331545472#2 3086259#0 3086261 3091989#1 -2524 30991997#1 1040747475 55296264#1 55290812#0 48207221 2742 52573120 52030081 52030084#0 38964070#0 50842685#0"/>
    </vehicle>
    <vehicle id="24" depart="42.62">
        <route edges="55602323#3 55602323#3.91 -8769288#1 3120967#0 773250139#1 331545472#2 3086259#0 3086261 3091989#1 -2524 30991997#1 1040747475 55296264#1 55290812#0 48207221 2742 52573120 55290813#0 -4279571 -175773133 683583893 115353253#0 115353253#1 48206750"/>
    </vehicle>
    <vehicle id="25" depart="44.40">
        <route edges="39340468#1 4271799#1 -26637310#2 3126773 39333941#2 39333941#4 8769305 309842640#0 39352131#0 39352131#2 39352131#3 837572187#0 837572187#1 837573373#0 837573373#2 837573373#4 444272568#1"/>
    </vehicle>
    <vehicle id="26" depart="46.18">
        <route edges="39340468#1 4271799#1 -26637310#2 3126773 39333941#2 39333941#4 8769305 309842640#0 39352131#0 39352131#2 39352131#3 837572187#0 837572187#1 837573373#0 837573373#2 837573373#4 444272568#1"/>
    </vehicle>
    <vehicle id="27" depart="47.95">
        <route edges="37777243#0 198245314#1 55296262 4479201#0 4346053 3027099#0 505404870#0 351684045#0 133875181#0 351684503 3025859#0 3025859#5 3025859#6 3025859#8 133875261#0 133875262#0 133875260#0 48586818 gneE74 54401064 984881214 984881212 48586824 2960823"/>
    </vehicle>
    <vehicle id="28" depart="49.73">
        <route edges="-32751327 309842640#0 39352131#0 39352131#2 39352131#3 837572187#0 837572187#1 837573373#0 837573373#2 837573373#4 444272568#1 -gneE28 gneE33"/>
    </vehicle>
    <vehicle id="29" depart="51.50">
        <route edges="26738340#0 50842685#1 -39348547#2 39348547#1 -3609801#3 2748#0 -37777243#4 37777243#0 198245314#1 55296262 4479201#0 4346053 55290810 55290800 55290807 55290799 -133875223#19 -133875223#16 -133875223#10 gneE81 -133875223#4 -133875223#1 -133875223#0 -4357619 4340722#0 133875244#0 133875232#0 3381569#0 133875226#0 133875226#1 133875249#0 180869463#0 133875229 133875236#0 133875236#2 133875245#0 133875245#3 gneE52 gneE52.55 -gneE86"/>
    </vehicle>
    <vehicle id="30" depart="53.28">
        <route edges="3024959#1 3025482#2 -959553052#2 -34784840#1 39183706 192668650#2 192668650#3 gneE13 gneE11 3292445#0.4 3292445#3 209#0 55290798#0 210#1 30992002 -3120967#1 8769305 309842640#0 39352131#0 39352131#2 39352131#3 837572187#0 837572187#1 837573373#0 837573373#2 837573373#4 444272568#1 -gneE28 gneE33"/>
    </vehicle>
    <vehicle id="31" depart="55.06">
        <route edges="133875223#11 133875223#17 984881209 37777462 55290809#0 3441738#0 55290801 4236439#0"/>
    </vehicle>
    <vehicle id="32" depart="56.83">
        <route edges="54649790 54401052#0 54401052#1 54401052#2 414017617 683648842#0 683648842#1 3024957 175773133 3024962 48207559 52030084#0 2765 52573118#0 2755#0 52573119 -55290812#1 -2756#1 2757#0 2757#1"/>
    </vehicle>
    <vehicle id="33" depart="58.61">
        <route edges="984881209 37777462 55290809#0 3441738#0 55290801 -2527#2 4644987#0 55296249#0 gneE91 55602323#3 55602323#3.91 -8769288#1 8769305 309842640#0 39352131#0 39352131#2 39352131#3 837572187#0 837572187#1 837573373#0 837573373#2 837573373#4 444272568#1"/>
    </vehicle>
    <vehicle id="34" depart="60.38">
        <route edges="-192674701 -279357279#1 326284091 984881212 54401067 gneE72 -133875260#3 -133875262#1 -133875261#1 -3025859#8 -3025859#7 -3025859#5 -3025859#3 -351684503 -351685326 -55290805 34243632#0 133875195#0 133875195#3 55290800 55290807 55290799 984881209 37777462 55290809#0 3441738#0 55290801"/>
    </vehicle>
    <vehicle id="35" depart="62.16">
        <route edges="-39645355#0 837573373#4 444272568#1 -gneE28 -gneE45 -gneE43 -gneE26 -gneE25 404611919#0 gneE51 -gneE52 -133875245#3 -133875245#2 -133875236#3 -133875236#1 -133875229 -180869463#1 -133875249#2 -133875226#2 -133875226#0 -3381569#3 94820#0 133875252#0 133875252#3 133875256#0 133875255 4338449#0 4357619 133875223#0 133875223#1 133875223#3 gneE82 133875223#6 133875223#11 133875223#17 984881209 55290796 4346053 3027099#0 505404870#0 351684045#0 133875181#0 351684503 3025859#0 3025859#5 3026118#0"/>
    </vehicle>
    <vehicle id="36" depart="63.94">
        <route edges="837573373#2 837573373#4 444272568#1 -gneE28 -gneE45 -gneE43 -gneE26 -gneE25 404611919#0 gneE51 -gneE52 -133875245#3 -133875245#2 -133875236#3 -133875236#1 -133875229 -180869463#1 -133875249#2 -133875226#2 -133875226#0 -3381569#3 94820#0 133875252#0 133875252#3 133875256#0 133875255 4338449#0 4357619 133875223#0 133875223#1 133875223#3 gneE82 133875223#6 133875223#11 133875223#17 984881209 55290796 4346053 55290810 55290800 3027057"/>
    </vehicle>
    <vehicle id="37" depart="65.71">
        <route edges="26312537#3 2743#0 -2743#1 2748#0 -37777243#4 37777243#0 198245314#1 55296262 197960551 55290809#0 3441738#0 -37728001#5"/>
    </vehicle>
    <vehicle id="38" depart="67.49">
        <route edges="-3024965#2 -3024966#1 3024962 48207559 52030084#0 38964070#0 39348547#1 -3609801#3 2748#0 -37777243#4 37777243#0 198245314#1 55296262 197960551 55290809#0 3441738#0"/>
    </vehicle>
    <vehicle id="39" depart="69.26">
        <route edges="2757#0 2757#1 1025513686#0 1025513686#1 188924487#0 209#0 55290798#0 210#1 30992002 -3120967#1 167257#2 884727976#0"/>
    </vehicle>
    <vehicle id="40" depart="71.04">
        <route edges="-2960823 48586823 gneE73 gneE74 54401064 192674702#0 279357279#1 192674701 58295596#0 -240290973#1 48586336#1 -192674402#2 -192674402#1 -959553052#4 -959553052#2 -34784840#1 39183706 192668650#2 192668650#3 gneE13 gneE11 3292445#0.4 3292445#3 209#0 55290798#0 210#1 30992002 -3120967#1 8769305 309842640#0 39352131#0 39352131#2 39352131#3 837572187#0 837572187#1 837573373#0 837573373#2 837573373#4 444272568#1 3098972#0"/>
    </vehicle>
    <vehicle id="41" depart="72.82">
        <route edges="4321650 167283#0 167283#0.164 -55602323#6 -gneE91 -55296249#2 -4644987#1 2527#0 4236439#0 4236439#1 3441067#0 55296262 4479201#0 4346053 3027099#0 505404870#0 351684045#0 133875181#0 351684503 3025859#0 -3026116#5 -3026116#2"/>
    </vehicle>
    <vehicle id="42" depart="74.59">
        <route edges="-779925235 -4479202#1 133875223#6 133875223#11 133875223#17 984881209 37777462 55290809#0 3441738#0 55290801 4236439#0 4236439#1 3441067#0 -203240967#2 -198245314#0 3609801#1"/>
    </vehicle>
    <vehicle id="43" depart="76.37">
        <route edges="3441067#0 55296262 4479201#0 4346053 55290810 55290800 55290807 55290799 -133875223#19 -133875223#16 -133875223#10 gneE81 -133875223#4 -133875223#1 -133875223#0 -4357619 4340722#0 133875244#0 133875232#0 3381569#0 133875226#0 940770422#0 553586920#0"/>
    </vehicle>
    <vehicle id="44" depart="78.15">
        <route edges="-133875262#1 -133875261#1 -3025859#8 -3025859#7 -3025859#5 -3025859#3 -351684503 -351685326 -55290805 34243632#0 133875195#0 133875195#3 55290800 55290807 55290799 984881209 37777462 55290809#0 3441738#0 55290801 -2527#2 4644987#0 55296249#0 gneE91 55602323#3 55602323#3.91 -8769288#1 8769305 309842640#0 39352131#0 39352131#2"/>
    </vehicle>
    <vehicle id="45" depart="79.92">
        <route edges="2757#0 2757#1 1025513686#0 1025513686#1 188924487#0 209#0 55290798#0 210#1 30992002 -3120967#1 167257#2 884727976#0"/>
    </vehicle>
    <vehicle id="46" depart="81.70">
        <route edges="127654225#19 209#0 55290798#0 210#1 30992002 -3120967#1 167257#2 -55602323#6 -gneE91 -55296249#2 -4644987#1 2527#0 4236439#0 4236439#1 3441067#0 55296262 4479201#0 4346053 3027099#0 505404870#0"/>
    </vehicle>
    <vehicle id="47" depart="83.47">
        <route edges="127632770#0 167257#2 -55602323#6 -gneE91 -55296249#2 -4644987#1 2527#0 4236439#0 4236439#1 3441067#0 55296262 4479201#0 4346053 55290810 55290800 3027057"/>
    </vehicle>
    <vehicle id="48" depart="85.25">
        <route edges="7985210#0 7985210#1 32751328 1025513686#0 1025513686#1 188924487#0 209#0 55290798#0 210#1 30992002 -3120967#1 167257#2 884727976#0 gneE92 115952099#2 -30906#3 38619223#0 133875255 133875259#0 133875244#0 133875232#0 3381569#0 133875226#0 133875226#1"/>
    </vehicle>
    <vehicle id="49" depart="87.03">
        <route edges="-55296249#2 -4644987#1 2527#0 4236439#0 4236439#1 3441067#0 55296262 4479201#0 4346053 3027099#0 505404870#0 351684045#0 133875181#0 351684503 3025859#0 3025859#5 3026118#0 3026118#6"/>
    </vehicle>
    <vehicle id="50" depart="88.80">
        <route edges="-959553052#2 -34784840#1 39183706 192668650#2 192668650#3 gneE13 gneE11 3292445#0.4 3292445#3 209#0 55290798#0 210#1 30992002 -3120967#1 8769305 309842640#0 39352131#0 39352131#2 39352131#3 837572187#0 837572187#1 837573373#0 837573373#2 837573373#4 444272568#1 -gneE28 -gneE45"/>
    </vehicle>
    <vehicle id="51" depart="90.58">
        <route edges="4338446#0 133875252#0 133875252#3 133875256#0 133875255 4338449#0 4357619 133875223#0 133875223#1 133875223#3 gneE82 133875223#6 133875223#11 133875223#17 984881209 37777462 55290809#0"/>
    </vehicle>
    <vehicle id="52" depart="92.35">
        <route edges="-39645355#0 837573373#4 444272568#1 -gneE28 -gneE45 -gneE43 -gneE26 -gneE25 404611919#0 gneE51 -gneE52 -133875245#3 -133875245#2 -133875236#3 -133875236#1 -133875229 -180869463#1 -133875249#2 -133875226#2 -133875226#0 -3381569#3 94820#0 133875252#0"/>
    </vehicle>
    <vehicle id="53" depart="94.13">
        <route edges="4236439#1 3441067#0 55296262 4479201#0 4346053 55290810 55290800 55290807 55290799 -133875223#19 -133875223#16 -133875223#10 gneE81 -133875223#4 -133875223#1 -133875223#0 -4357619 4340722#0 133875244#0 133875232#0 3381569#0 133875226#0 133875226#1 133875249#0 180869463#0 133875229 133875236#0 133875236#2 133875245#0 133875245#3"/>
    </vehicle>
    <vehicle id="54" depart="95.91">
        <route edges="-39352131#2 -39352131#1 -3086257#1 -3086258 331545472#2 3086259#0 3086261 3091989#1 -2524 30991997#1 1040747475 55296264#1 55290812#0 48207221 2742 52573120 55290813#0 -4279571 -175773133 683583893 115353253#0 115353253#1 48206750 -54401052#2 -54401052#1 -54401052#0"/>
    </vehicle>
    <vehicle id="55" depart="97.68">
        <route edges="188924488#0 7985210#1 32751328 1025513686#0 1025513686#1 188924487#0 209#0 55290798#0 -gneE54"/>
    </vehicle>
    <vehicle id="56" depart="99.46">
        <route edges="-133875262#1 -133875261#1 -3025859#8 -3025859#7 -3025859#5 -3025859#3 -351684503 -351685326 -55290805 34243632#0 133875195#0 133875195#3 55290800 55290807 55290799 984881209 37777462 55290809#0 3441738#0 55290801 -2527#2 4644987#0 55296249#0 gneE91 55602323#3 55602323#3.91 -8769288#1 8769305 309842640#0 39352131#0 39352131#2 39352131#3 837572187#0 837572187#1 837573373#0 837573373#2 837573373#4 444272568#1"/>
    </vehicle>
    <vehicle id="57" depart="101.23">
        <route edges="-2743#2 -2743#1 2748#0 -37777243#4 37777243#0 198245314#1 55296262 197960551 55290809#0 3441738#0 55290801 -2527#2 4644987#0 55296249#0 gneE91 55602323#3 55602323#3.91"/>
    </vehicle>
    <vehicle id="58" depart="103.01">
        <route edges="gneE54 210#1 30992002 -3120967#1 8769305 309842640#0 39352131#0 39352131#2 39352131#3 837572187#0 837572187#1 837573373#0 837573373#2 837573373#4 444272568#1 -gneE28 -gneE45"/>
    </vehicle>
    <vehicle id="59" depart="104.79">
        <route edges="-39645355#1 -39645355#0 837573373#4 444272568#1 -gneE28 -gneE45 -gneE43 -gneE26 -gneE25 404611919#0 gneE51 -gneE52 -133875245#3 -133875245#2 -133875236#3 -133875236#1 -133875229 -180869463#1 -133875249#2 -133875226#2 -133875226#0 -3381569#3 94820#0 133875252#0 133875252#3 4338448#0 48665005 115952095#0 3441624#0 167160#0 gneE91 -57962409"/>
    </vehicle>
    <vehicle id="60" depart="106.56">
        <route edges="55296262 197960551 55290809#0 3441738#0 55290801 -2527#2 4644987#0"/>
    </vehicle>
    <vehicle id="61" depart="108.34">
        <route edges="48207559 52030084#0 38964070#0 39348547#1 -3609801#3 2748#0 -37777243#4 37777243#0 198245314#1 55296262 197960551 55290809#0 3441738#0 55290801 -2527#2"/>
    </vehicle>
    <vehicle id="62" depart="110.11">
        <route edges="gneE82 133875223#6 133875223#11 133875223#17 984881209 37777462 55290809#0 3441738#0 55290801 -2527#2 4644987#0"/>
    </vehicle>
    <vehicle id="63" depart="111.89">
        <route edges="-779925235 -4479202#1 133875223#6 133875223#11 133875223#17 984881209 37777462 55290809#0 3441738#0 55290801 4236439#0 4236439#1 3441067#0 -203240967#2 -198245314#0"/>
    </vehicle>
    <vehicle id="64" depart="113.67">
        <route edges="-2745#1 -39348547#2 39348546#0 52573118#0 2755#0 52573119 -55290812#1 -2756#1 2757#0 2757#1 1025513686#0 1025513686#1 188924487#0 -3292445#8 -3292445#2 gneE12 -192668650#4 -192668650#2"/>
    </vehicle>
    <vehicle id="65" depart="115.44">
        <route edges="-58295596#1 -192674701 -279357279#1 326284091 984881212 54401067 gneE72 -133875260#3 -133875262#1 -133875261#1 -3025859#8 -3025859#7 -3025859#5 -3025859#3 -351684503 -351685326 -55290805 34243632#0 133875195#0 133875195#3 55290800 55290807 55290799 984881209 37777462"/>
    </vehicle>
    <vehicle id="66" depart="117.22">
        <route edges="4235144#3 gneE13 gneE11 3292445#0.4 3292445#3 209#0 55290798#0 210#1 30992002 -3120967#1 8769305 309842640#0 39352131#0 39352131#2 39352131#3 837572187#0 837572187#1 837573373#0 837573373#2 837573373#4 444272568#1 -gneE28 -gneE45 -gneE43"/>
    </vehicle>
    <vehicle id="67" depart="118.99">
        <route edges="48586336#1 -192674402#2 -192674402#1 -959553052#4 -959553052#2 -34784840#1 39183706 192668650#2 192668650#3 gneE13 gneE11 3292445#0.4 3292445#3 209#0 55290798#0 210#1 30992002 -3120967#1 8769305 309842640#0 39352131#0 39352131#2 39352131#3 837572187#0 837572187#1 837573373#0 837573373#2 837573373#4 444272568#1 3098972#0"/>
    </vehicle>
    <vehicle id="68" depart="120.77">
        <route edges="-2743#1 2748#0 -37777243#4 37777243#0 198245314#1 55296262 197960551 55290809#0 3441738#0 55290801 -2527#2 4644987#0 55296249#0 gneE91 55602323#3 55602323#3.91 -8769288#1 8769305 309842640#0 39352131#0 39352131#2 39352131#3 837572187#0 837572187#1 837573373#0 837573373#2 837573373#4 444272568#1 3098972#0"/>
    </vehicle>
    <vehicle id="69" depart="122.55">
        <route edges="133875223#11 133875223#17 984881209 37777462 55290809#0 3441738#0 55290801 4236439#0"/>
    </vehicle>
    <vehicle id="70" depart="124.32">
        <route edges="175773133 3024962 48207559 52030084#0 2765 52573118#0 2755#0 52573119 -55290812#1 -2756#1 2757#0 2757#1 1025513686#0 1025513686#1 188924487#0 209#0 55290798#0 210#1 30992002 773250139#1 3086258"/>
    </vehicle>
    <vehicle id="71" depart="126.10">
        <route edges="414017617 683648842#0 683648842#1 3024957 175773133 3024962 48207559 52030084#0 38964070#0 39348547#1 -3609801#3 2748#0 -37777243#4 37777243#0 198245314#1 55296262 197960551 55290809#0 3441738#0 55290801 -2527#2 4644987#0 55296249#0 gneE91 4231695#0 4231695#3"/>
    </vehicle>
    <vehicle id="72" depart="127.87">
        <route edges="-899645883#1 gneE11 3292445#0.4 3292445#3 209#0 55290798#0 210#1 30992002 -3120967#1 8769305 309842640#0 39352131#0 39352131#2 39352131#3 837572187#0 837572187#1 837573373#0 837573373#2 837573373#4 444272568#1 3098972#0"/>
    </vehicle>
    <vehicle id="73" depart="129.65">
        <route edges="127654225#19 209#0 2523#0 30991997#1 1040747475 55296264#1 55290812#0 48207221 2742 52573120 55290813#0 -4279571 -175773133 683583893 115353253#0"/>
    </vehicle>
    <vehicle id="74" depart="131.43">
        <route edges="-39645355#1 -39645355#0 837573373#4 444272568#1 -gneE28 -gneE45 -gneE43 -gneE26 -gneE25 404611919#0 gneE51 -gneE52 -133875245#3 -133875245#2 -133875236#3 -133875236#1 -133875229 -180869463#1 -133875249#2 -133875226#2 -133875226#0 -3381569#3 94820#0 133875252#0 133875252#3 133875256#0 133875255 4338449#0 4357619 133875223#0 133875223#1 133875223#3 gneE82 133875223#6 133875223#11 133875223#17 984881209 55290796 4346053 3027099#0 505404870#0 351684045#0 133875181#0 351684503 3025859#0 3025859#5 3026118#0 4482439"/>
    </vehicle>
    <vehicle id="75" depart="133.20">
        <route edges="26738340#0 50842685#1 -39348547#2 39348547#1 -3609801#3 2748#0 -37777243#4 37777243#0 198245314#1 55296262 4479201#0 4346053 55290810 55290800 55290807 55290799 -133875223#19 -133875223#16 -133875223#10 gneE81 -133875223#4 4354018"/>
    </vehicle>
    <vehicle id="76" depart="134.98">
        <route edges="-55290805 34243632#0 133875195#0 133875195#3 55290800 55290807 55290799 984881209 37777462 55290809#0 3441738#0 55290801 -2527#2 4644987#0 55296249#0 gneE91"/>
    </vehicle>
    <vehicle id="77" depart="136.75">
        <route edges="-gneE91 -55296249#2 -4644987#1 2527#0 4236439#0 4236439#1 3441067#0 55296262 4479201#0 4346053 3027099#0 505404870#0 351684045#0 133875181#0 351684503 3025859#0 3025859#5 3026118#0 3026118#6"/>
    </vehicle>
    <vehicle id="78" depart="138.53">
        <route edges="2757#1 1025513686#0 1025513686#1 188924487#0 209#0 55290798#0 210#1 30992002 -3120967#1 8769305 309842640#0 39352131#0 39352131#2 39352131#3 837572187#0 837572187#1 837573373#0 837573373#2 837573373#4 444272568#1"/>
    </vehicle>
    <vehicle id="79" depart="140.31">
        <route edges="-3098972#0 -gneE28 -gneE45 -gneE43 -gneE26 -gneE25 404611919#0 gneE51 -gneE52 -133875245#3 -133875245#2 -133875236#3 -133875236#1 -133875229 -180869463#1 -133875249#2 -133875226#2 -133875226#0 -3381569#3 94820#0 133875252#0 133875252#3 4338448#0 48665005 115952095#0 -546225667#1 -8769288#1 3120967#0 773250139#1 331545472#2 3086259#0 3086261 3091989#1 -2524 30991997#1 1040747475 55296264#1 55290812#0 48207221 2742 52573120 55290813#0 -4279571 -175773133 683583893 115353253#0 115353253#1 48206750 -54401052#2 -3024771 -2960931#0 326284103 54401064 192674702#0 279357279#1"/>
    </vehicle>
    <vehicle id="80" depart="142.08">
        <route edges="55290798#0 210#1 30992002 -3120967#1 167257#2 -55602323#6 -gneE91 -55296249#2 -4644987#1 2527#0 4236439#0 4236439#1 3441067#0 55296262 4479201#0 4346053 55290810 55290800 3027057"/>
    </vehicle>
    <vehicle id="81" depart="143.86">
        <route edges="-3025859#3 -351684503 -351685326 -55290805 34243632#0 133875195#0 133875195#3 55290800 55290807 55290799 984881209 37777462 55290809#0 3441738#0 55290801 -2527#2 4644987#0 55296249#0 gneE91 55602323#3 55602323#3.91 -8769288#1 8769305 309842640#0 39352131#0 39352131#2 39352131#3 837572187#0 837572187#1 837573373#0 837573373#2 837573373#4 444272568#1 3098972#0"/>
    </vehicle>
    <vehicle id="82" depart="145.63">
        <route edges="-2955307#1 -3026118#5 -3025859#5 -3025859#3 -351684503 -351685326 -55290805 34243632#0 133875195#0 133875195#3 55290800 55290807 55290799 984881209 37777462 55290809#0 3441738#0 55290801 -2527#2 4644987#0 55296249#0 gneE91 55602323#3 55602323#3.91 -8769288#1 8769305 32751327 3086252#0 3086251 3086245#1"/>
    </vehicle>
    <vehicle id="83" depart="147.41">
        <route edges="-3026118#5 -3025859#5 -3025859#3 -351684503 -351685326 -55290805 34243632#0 133875195#0 133875195#3 55290800 55290807 55290799 984881209 37777462 55290809#0 3441738#0 55290801 -2527#2 4644987#0 55296249#0 gneE91 55602323#3 55602323#3.91 -8769288#1 8769305 309842640#0 39352131#0 39352131#2 39352131#3 837572187#0 3600469#0"/>
    </vehicle>
    <vehicle id="84" depart="149.19">
        <route edges="-54516245#0 3026120 -351684503 -351685326 -55290805 34243632#0 133875195#0 133875195#3 55290800 55290807 55290799 984881209 37777462 55290809#0 3441738#0 55290801 -2527#2 4644987#0 55296249#0 gneE91"/>
    </vehicle>
    <vehicle id="85" depart="150.96">
        <route edges="-39645355#0 837573373#4 444272568#1 -gneE28 -gneE45 -gneE43 -gneE26 -gneE25 404611919#0 gneE51 -gneE52 -133875245#3 -133875245#2 -133875236#3 -133875236#1 -133875229 -180869463#1 -133875249#2 -133875226#2 -133875226#0 -3381569#3 94820#0 133875252#0"/>
    </vehicle>
    <vehicle id="86" depart="152.74">
        <route edges="-39645355#0 837573373#4 444272568#1 -gneE28 -gneE45 -gneE43 -gneE26 -gneE25 404611919#0 gneE51 -gneE52 -133875245#3 -133875245#2 -133875236#3 -133875236#1 -133875229 -180869463#1 -133875249#2 -133875226#2 -133875226#0 -3381569#3 94820#0 133875252#0"/>
    </vehicle>
    <vehicle id="87" depart="154.51">
        <route edges="837573373#2 837573373#4 444272568#1 -gneE28 -gneE45 -gneE43 -gneE26 -gneE25 404611919#0 gneE51 -gneE52 -133875245#3 -133875245#2 -133875236#3 -133875236#1 -133875229 -180869463#1 -133875249#2 -133875226#2 -133875226#0 -3381569#3 94820#0 133875252#0 133875252#3 4338448#0 48665005 115952095#0 -546225667#1 -8769288#1"/>
    </vehicle>
    <vehicle id="88" depart="156.29">
        <route edges="-3086257#1 -3086258 331545472#2 3086259#0 3086261 3091989#1 -2524 30991997#1 1040747475 55296264#1 55290812#0 48207221 2742 52573120 55290813#0 -4279571 -175773133 683583893 115353253#0 115353253#1 48206750 -54401052#2 -3024771 -2960931#0 326284103 54401064 984881214 984881212 48586824 2960823"/>
    </vehicle>
    <vehicle id="89" depart="158.07">
        <route edges="39264086 167208#2 822839889 57962409 -gneE91 -55296249#2 -4644987#1 2527#0 4236439#0 4236439#1 3441067#0 55296262 4479201#0 4346053 3027099#0 505404870#0 351684045#0 133875181#0 351684503"/>
    </vehicle>
    <vehicle id="90" depart="159.84">
        <route edges="167357#0 2534#0 48207221 2742 52573120 52030081 52030084#0 38964070#0 39348547#1 -3609801#3 2748#0 -37777243#4 37777243#0 198245314#1 55296262 197960551 55290809#0 3441738#0 55290801 4236439#0 39333603"/>
    </vehicle>
    <vehicle id="91" depart="161.62">
        <route edges="-55290812#1 -2756#1 2757#0 2757#1 1025513686#0 1025513686#1 188924487#0 209#0 2523#0 2524 39340468#0 39340468#1"/>
    </vehicle>
    <vehicle id="92" depart="163.39">