<?xml version="1.0" encoding="UTF-8"?>
<!-- generated on 2022-05-05 19:34:37.662010 by $Id$ UNKNOWN
  options: -r routes/basicRoutes.rou.xml -d expandedCounts.xml -o routes/sampledRoutes.rou.xml <doubleminus>weighted <doubleminus>optimize full
-->
<routes xmlns:xsi="http://www.w3.org/2001/XMLSchema-instance" xsi:noNamespaceSchemaLocation="http://sumo.dlr.de/xsd/routes_file.xsd">
<!-- begin="0.0" end="3600.0" -->
    <vehicle id="0" depart="0.00">
        <route edges="gneE109 -192668650#4 -192668650#2 -192668650#1 192668649#1 192668647 959553052#0 959553052#3 192674402#0 192674402#2"/>
    </vehicle>
    <vehicle id="1" depart="0.65">
        <route edges="gneE26 gneE43 gneE45 gneE28"/>
    </vehicle>
    <vehicle id="2" depart="1.31">
        <route edges="192668650#3 gneE107 gneE108 3292445#0.4 3292445#3 209#0 2523#0 30991997#1 1040747475 55296264#1"/>
    </vehicle>
    <vehicle id="3" depart="1.96">
        <route edges="30992002 -3120967#1 8769305 309842640#0 39352131#0 39352131#2 39352131#3 837572187#0 837572187#1 837573373#0 837573373#2 837573373#4"/>
    </vehicle>
    <vehicle id="4" depart="2.61">
        <route edges="167283#0.164 884727976#0 gneE92 115952099#2 -30906#3 38619223#0 133875255 4338449#0"/>
    </vehicle>
    <vehicle id="5" depart="3.26">
        <route edges="210#1 30992002 -3120967#1 167257#2 -55602323#6 4231695#0 252506895"/>
    </vehicle>
    <vehicle id="6" depart="3.92">
        <route edges="-8769288#1 3120967#0 773250139#1 331545472#2 3086259#0 3086261 3091989#1"/>
    </vehicle>
    <vehicle id="7" depart="4.57">
        <route edges="48586336#1 -192674402#2 -192674402#1 -959553052#4 -959553052#2 -34784840#1 39183706 192668650#2"/>
    </vehicle>
    <vehicle id="8" depart="5.22">
        <route edges="209#0"/>
    </vehicle>
    <vehicle id="9" depart="5.87">
        <route edges="3441738#0 55290801 -2527#2 4644987#0 55296249#0 gneE91 -57962409 -42164793"/>
    </vehicle>
    <vehicle id="10" depart="6.53">
        <route edges="198245314#1 55296262 197960551 55290809#0 3441738#0 55290801 4236439#0"/>
    </vehicle>
    <vehicle id="11" depart="7.18">
        <route edges="141841564#7 -gneE97 133875252#3 4338448#0 48665005 115952095#0 -546225667#1 -8769288#1 3120967#0 773250139#1 331545472#2 3086259#0 3086261 3091989#1 -2524 30991997#1 1040747475 2757#1 1025513686#0 1025513686#1 2761 188924488#0 7985210#1"/>
    </vehicle>
    <vehicle id="12" depart="7.83">
        <route edges="326284091 984881212 54401067 gneE72 -133875260#3 -133875262#1 -133875261#1 -3025859#8 -3025859#7 -3025859#5 -3025859#3 -351684503 -351685326 -55290805 34243632#0 133875195#0 133875195#3 55290800 55290807 55290799 984881209 37777462 55290809#0 3441738#0"/>
    </vehicle>
    <vehicle id="13" depart="8.48">
        <route edges="683648843 683648842#0 683648842#1 3024957 175773133 3024962 48207559 52030084#0 38964070#0 39348547#1 -3609801#3 2748#0 198245314#1 55296262 4479201#0 4346053 55290810 55290800 55290807 55290799 -133875223#19 -133875223#16 -133875223#10 gneE81 -133875223#4 -133875223#1 -133875223#0 -4357619 4340722#0 133875244#0 4338446#0 133875252#0 gneE97 -141841564#11 -5191097#3 403281810#0 403281808"/>
    </vehicle>
    <vehicle id="14" depart="9.14">
        <route edges="-133875249#2 -133875226#2 -133875226#0 -3381569#3 94820#0 133875252#0 133875252#3 4338448#0 48665005 115952095#0 -546225667#1 -8769288#1 3120967#0 773250139#1 331545472#2 -210#1"/>
    </vehicle>
    <vehicle id="15" depart="9.79">
        <route edges="30992002 -3120967#1 8769305 309842640#0 39352131#0 39352131#2 39352131#3 837572187#0 837572187#1 837573373#0 837573373#2 837573373#4"/>
    </vehicle>
    <vehicle id="16" depart="10.44">
        <route edges="3120967#0 773250139#1 331545472#2 3086259#0 3086261 3091989#1 -2524 30991997#1"/>
    </vehicle>
    <vehicle id="17" depart="11.09">
        <route edges="837573373#4 444272568#1 -gneE28"/>
    </vehicle>
    <vehicle id="18" depart="11.75">
        <route edges="192668647 959553052#0 959553052#3 192674402#0 192674402#2 -48586336#2 240290973#0 -58295596#1 -192674701 -279357279#1 326284091 984881212 54401067 gneE72 -133875260#3 -133875262#1 -133875261#1 -3025859#8 -3025859#7 -3025859#5 -3025859#3"/>
    </vehicle>
    <vehicle id="19" depart="12.40">
        <route edges="837573373#4 444272568#1 -gneE28"/>
    </vehicle>
    <vehicle id="20" depart="13.05">
        <route edges="48207221 2742 52573120 55290813#0 -4279571 -175773133 683583893 115353253#0 115353253#1 48206750 -54401052#2 -3024771 -2960931#0 326284103 54401064 192674702#0"/>
    </vehicle>
    <vehicle id="21" depart="13.70">
        <route edges="54401052#2 414017617 683648842#0 683648842#1 3024957 175773133"/>
    </vehicle>
    <vehicle id="22" depart="14.36">
        <route edges="209#0 55290798#0 210#1 30992002 -3120967#1 167257#2 884727976#0 gneE92 115952099#2 -30906#3 38619223#0 133875255 133875259#0 133875244#0 133875232#0 3381569#0 133875226#0"/>
    </vehicle>
    <vehicle id="23" depart="15.01">
        <route edges="48207221 2742 52573120 52030081 52030084#0 38964070#0 39348547#1 -3609801#3 2748#0 198245314#1 55296262 4479201#0 4346053 55290810 55290800 55290807 55290799"/>
    </vehicle>
    <vehicle id="24" depart="15.66">
        <route edges="50842685#1 -39348547#2 39348547#1 -3609801#3 2748#0 198245314#1 55296262 197960551 55290809#0 3441738#0 55290801 4236439#0"/>
    </vehicle>
    <vehicle id="25" depart="16.31">
        <route edges="1040747475 55296264#1"/>
    </vehicle>
    <vehicle id="26" depart="16.97">
        <route edges="837573373#4 444272568#1 -gneE28 -gneE45 -gneE43 -gneE26 -gneE25 404611919#0 gneE51 -gneE52 -133875245#3 -133875245#2 -133875236#3 -133875236#1 -133875229 -180869463#1 -133875249#2 -133875226#2 -133875226#0 -3381569#3 94820#0 133875252#0 133875252#3 4338448#0 48665005 115952095#0 -546225667#1 -8769288#1 3120967#0 773250139#1 331545472#2 -210#1 -55290798#2 -209#3 -3292445#8"/>
    </vehicle>
    <vehicle id="27" depart="17.62">
        <route edges="-2524 30991997#1 1040747475 2757#1 1025513686#0 1025513686#1"/>
    </vehicle>
    <vehicle id="28" depart="18.27">
        <route edges="gneE52.55 -gneE51 -404611919#1 gneE25 gneE26 gneE43 gneE45 gneE28 -444272568#2 -444272568#0 39645355#0 39645355#1 -39645355#1 -39645355#0 837573373#4 444272568#1 -gneE28 -gneE45 -gneE43 -gneE26 -gneE25 404611919#0 gneE51 -gneE52 -133875245#3 -133875245#2 -133875236#3 -133875236#1 -133875229 -180869463#1 -133875249#2 -133875226#2 -133875226#0 -3381569#3 94820#0 133875252#0 133875252#3 133875256#0 133875255 4338449#0"/>
    </vehicle>
    <vehicle id="29" depart="18.92">
        <route edges="279357279#1 192674701 58295596#0 -240290973#1 48586336#1 -192674402#2 -192674402#1 -959553052#4 -959553052#2 -34784840#1"/>
    </vehicle>
    <vehicle id="30" depart="19.58">
        <route edges="4045612#0 4045612#1 3091989#1 -2524 30991997#1 1040747475 55296264#1"/>
    </vehicle>
    <vehicle id="31" depart="20.23">
        <route edges="55602323#3 55602323#3.91 -8769288#1 8769305 309842640#0 39352131#0"/>
    </vehicle>
    <vehicle id="32" depart="20.88">
        <route edges="52030084#0 2765 52573118#0 2755#0 48207220 52573120 55290813#0 -4279571 -175773133 683583893"/>
    </vehicle>
    <vehicle id="33" depart="21.53">
        <route edges="52030081 52030084#0 38964070#0 50842685#0 50842685#1 2745#0 192671933#0 3025839#0 -133875261#1 -3025859#8 -3025859#7 -3025859#5 -3025859#3"/>
    </vehicle>
    <vehicle id="34" depart="22.19">
        <route edges="-133875223#0 -4357619 4340722#0 133875244#0 4338446#0 133875252#0 133875252#3 4338448#0 48665005 115952095#0 -546225667#1 -8769288#1 3120967#0 773250139#1 331545472#2 3086259#0 3086261 3091989#1 -2524 30991997#1 1040747475 55296264#1"/>
    </vehicle>
    <vehicle id="35" depart="22.84">
        <route edges="48207221 2742 52573120 52030081 52030084#0 38964070#0 39348547#1 -3609801#3 2748#0 198245314#1 55296262 4479201#0 4346053 55290810 55290800 55290807 55290799"/>
    </vehicle>
    <vehicle id="36" depart="23.49">
        <route edges="-8769288#1 3120967#0 773250139#1 331545472#2 3086259#0 3086261 3091989#1"/>
    </vehicle>
    <vehicle id="37" depart="24.14">
        <route edges="55290798#0 210#1"/>
    </vehicle>
    <vehicle id="38" depart="24.80">
        <route edges="683648843 683648842#0 683648842#1 3024957 175773133 3024962 48207559 52030084#0 38964070#0 39348547#1 -3609801#3 2748#0 198245314#1 55296262 4479201#0 4346053 55290810 55290800 55290807 55290799 -133875223#19 -133875223#16 -133875223#10 gneE81 -133875223#4 -133875223#1 -133875223#0 -4357619 4340722#0 133875244#0 4338446#0 133875252#0 gneE97 -141841564#11 -5191097#3 403281810#0 403281808"/>
    </vehicle>
    <vehicle id="39" depart="25.45">
        <route edges="gneE108 gneE109 -192668650#4 -192668650#2 -192668650#1 192668649#1 192668647 959553052#0 -3025482#4 -3024959#4"/>
    </vehicle>
    <vehicle id="40" depart="26.10">
        <route edges="-2524 30991997#1 1040747475 2757#1 1025513686#0 1025513686#1"/>
    </vehicle>
    <vehicle id="41" depart="26.75">
        <route edges="48207221 2742 52573120 55290813#0 -4279571 -175773133 683583893 115353253#0 115353253#1 48206750 -54401052#2 -54401052#1 2960939"/>
    </vehicle>
    <vehicle id="42" depart="27.41">
        <route edges="-39352131#5 -39352131#2 3086250 4321650 167283#0 167283#0.164 -55602323#6 -gneE91 -55296249#2 -4644987#1 2527#0 4236439#0 4236439#1 3441067#0 55296262 4479201#0 4346053 3027099#0 505404870#0 351684045#0 133875181#0 351684503"/>
    </vehicle>
    <vehicle id="43" depart="28.06">
        <route edges="683648843 683648842#0 683648842#1 3024957 175773133 3024962 48207559 52030084#0 38964070#0 39348547#1 -3609801#3 2748#0 198245314#1 55296262 4479201#0 4346053 55290810 55290800 55290807 55290799 -133875223#19 -133875223#16 -133875223#10 gneE81 -133875223#4 -133875223#1 -133875223#0 -4357619 4340722#0 133875244#0 4338446#0 133875252#0 gneE97 -141841564#11 -5191097#3 403281810#0 403281808"/>
    </vehicle>
    <vehicle id="44" depart="28.71">
        <route edges="3026116#3 3025859#5 3025859#6 3025859#8 133875261#0 133875262#0 133875260#0 48586818 gneE74 54401064"/>
    </vehicle>
    <vehicle id="45" depart="29.36">
        <route edges="2748#0 198245314#1 55296262 197960551 55290809#0 3441738#0 55290801 -2527#2 4644987#0 55296249#0 gneE91 55602323#3 55602323#3.91 -8769288#1 8769305 -4231711"/>
    </vehicle>
    <vehicle id="46" depart="30.02">
        <route edges="7985210#0 7985210#1 32751328 1025513686#0 1025513686#1 188924487#0 209#0 55290798#0 210#1"/>
    </vehicle>
    <vehicle id="47" depart="30.67">
        <route edges="gneE25 gneE26 gneE43 gneE45 gneE28 -444272568#2 -444272568#0"/>
    </vehicle>
    <vehicle id="48" depart="31.32">
        <route edges="gneE26 gneE43 gneE45 gneE28"/>
    </vehicle>
    <vehicle id="49" depart="31.97">
        <route edges="3025859#6 3025859#8 133875261#0 133875262#0 133875260#0 48586818 gneE74 54401064 192674702#0 279357279#1 192674701"/>
    </vehicle>
    <vehicle id="50" depart="32.63">
        <route edges="gneE75 48586837 3024770 54401052#2 414017617 683648842#0 683648842#1 3024957 175773133 3024962 48207559 52030084#0 2765 52573118#0 2755#0 52573119"/>
    </vehicle>
    <vehicle id="51" depart="33.28">
        <route edges="198245314#1 55296262 197960551 55290809#0 3441738#0 55290801 4236439#0"/>
    </vehicle>
    <vehicle id="52" depart="33.93">
        <route edges="48207221 2742 52573120"/>
    </vehicle>
    <vehicle id="53" depart="34.58">
        <route edges="-55290805 34243632#0 133875195#0 133875195#3 55290800 55290807 55290799 984881209 37777462 55290809#0 3441738#0 55290801 -2527#2"/>
    </vehicle>
    <vehicle id="54" depart="35.24">
        <route edges="837573373#2 837573373#4 444272568#1 -gneE28 -gneE45 -gneE43 -gneE26 -gneE25 404611919#0 gneE51 -gneE52 -133875245#3 -133875245#2 -133875236#3 -133875236#1 -133875229 -180869463#1 -133875249#2 -133875226#2 -133875226#0 -3381569#3 94820#0 133875252#0 133875252#3 133875256#0 133875255 4338449#0 4357619 133875223#0 133875223#1 133875223#3 gneE82 133875223#6 133875223#11 133875223#17 984881209 37777462 55290809#0 3441738#0 55290801 4236439#0 4236439#1 3441067#0 -203240967#2 -198245314#0 -26312537#4 3058153"/>
    </vehicle>
    <vehicle id="55" depart="35.89">
        <route edges="3025859#5 3025859#6 3025859#8 133875261#0 133875262#0 133875260#0 48586818 gneE74 54401064 192674702#0 279357279#1 192674701 gneE80"/>
    </vehicle>
    <vehicle id="56" depart="36.54">
        <route edges="48207221 2742 52573120 55290813#0 -4279571 -175773133 683583893 115353253#0 115353253#1 48206750 -54401052#2 -54401052#1 -54401052#0 -54649790 373843895"/>
    </vehicle>
    <vehicle id="57" depart="37.19">
        <route edges="3091989#1 39340468#0 39340468#1"/>
    </vehicle>
    <vehicle id="58" depart="37.85">
        <route edges="209#0"/>
    </vehicle>
    <vehicle id="59" depart="38.50">
        <route edges="192668650#2 192668650#3 gneE107 gneE108 3292445#0.4 3292445#3 209#0 55290798#0 210#1 30992002 -3120967#1 167257#2 -55602323#6 -gneE91 -55296249#2 -4644987#1 2527#0 4236439#0 4236439#1 3441067#0 55296262 4479201#0 4346053"/>
    </vehicle>
    <vehicle id="60" depart="39.15">
        <route edges="52030081 52030084#0 38964070#0 50842685#0 50842685#1 2745#0 192671933#0 3025839#0 -133875261#1 -3025859#8 -3025859#7 -3025859#5 -3025859#3"/>
    </vehicle>
    <vehicle id="61" depart="39.80">
        <route edges="3441738#0 55290801 -2527#2 4644987#0 55296249#0 gneE91 55602323#3 55602323#3.91 -8769288#1"/>
    </vehicle>
    <vehicle id="62" depart="40.46">
        <route edges="39348546#0 52573118#0 2755#0"/>
    </vehicle>
    <vehicle id="63" depart="41.11">
        <route edges="-444272568#0 -837573373#3 -837573373#1"/>
    </vehicle>
    <vehicle id="64" depart="41.76">
        <route edges="52573118#0 2755#0 48207220 52573120 55290813#0 -4279571 -175773133 683583893 115353253#0 115353253#1 48206750 -54401052#2 -3024771 -2960931#0"/>
    </vehicle>
    <vehicle id="65" depart="42.41">
        <route edges="30992002 -3120967#1 8769305 309842640#0 39352131#0 39352131#2 39352131#3 837572187#0 837572187#1 837573373#0 837573373#2 837573373#4"/>
    </vehicle>
    <vehicle id="66" depart="43.07">
        <route edges="39348546#0 52573118#0 2755#0"/>
    </vehicle>
    <vehicle id="67" depart="43.72">
        <route edges="209#0 55290798#0 210#1 30992002 -3120967#1 167257#2 884727976#0 gneE92 115952099#2 -30906#3 38619223#0 133875255 4338449#0"/>
    </vehicle>
    <vehicle id="68" depart="44.37">
        <route edges="39183706 192668650#2 192668650#3 gneE107 gneE108 3292445#0.4 3292445#3 209#0 55290798#0 210#1 3086259#0 3086261"/>
    </vehicle>
    <vehicle id="69" depart="45.02">
        <route edges="403281810#0"/>
    </vehicle>
    <vehicle id="70" depart="45.68">
        <route edges="-133875226#0 -3381569#3 94820#0 133875252#0 133875252#3 133875256#0 133875255 4338449#0 4357619 133875223#0 133875223#1 133875223#3 gneE82 133875223#6 133875223#11 133875223#17 984881209 37777462 55290809#0 3441738#0 55290801 4236439#0 4236439#1 3441067#0 -203240967#2 -198245314#0"/>
    </vehicle>
    <vehicle id="71" depart="46.33">
        <route edges="-444272568#0 -837573373#3 -837573373#1"/>
    </vehicle>
    <vehicle id="72" depart="46.98">
        <route edges="133875244#0 4338446#0 133875252#0 133875252#3 4338448#0 48665005 115952095#0 -546225667#1 -8769288#1 8769305 32751327"/>
    </vehicle>
    <vehicle id="73" depart="47.63">
        <route edges="-2756#1 2757#0 2757#1 1025513686#0 1025513686#1 188924487#0 209#0 55290798#0 210#1 30992002"/>
    </vehicle>
    <vehicle id="74" depart="48.29">
        <route edges="-gneE91 -55296249#2 -4644987#1 2527#0 4236439#0 4236439#1 3441067#0 55296262 4479201#0 4346053 55290810 55290800 3027057"/>
    </vehicle>
    <vehicle id="75" depart="48.94">
        <route edges="3086261 3091989#1 -2524 30991997#1 1040747475 55296264#1 55290812#0 48207221 2742 52573120 55290813#0 -4279571 -175773133 683583893 115353253#0 115353253#1 683648843 683648842#0 48206751"/>
    </vehicle>
    <vehicle id="76" depart="49.59">
        <route edges="-351684503 -351685326 -55290805 34243632#0 133875195#0 133875195#3 55290800 55290807 55290799 984881209 37777462 55290809#0 3441738#0"/>
    </vehicle>
    <vehicle id="77" depart="50.24">
        <route edges="gneE81 -133875223#4 -133875223#1 -133875223#0 -4357619 4340722#0 133875244#0 4338446#0 133875252#0 133875252#3 4338448#0 48665005 115952095#0 -546225667#1 -8769288#1 8769305 32751327"/>
    </vehicle>
    <vehicle id="78" depart="50.90">
        <route edges="837573373#4 444272568#1 -gneE28"/>
    </vehicle>
    <vehicle id="79" depart="51.55">
        <route edges="1040747475 55296264#1"/>
    </vehicle>
    <vehicle id="80" depart="52.20">
        <route edges="55290799 984881209 37777462 55290809#0 3441738#0 55290801 -2527#2 4644987#0 55296249#0 gneE91 55602323#3 55602323#3.91 -8769288#1 3120967#0 773250139#1 331545472#2 -210#1 -55290798#2 -209#3 -3292445#8 -3292445#2"/>
    </vehicle>
    <vehicle id="81" depart="52.85">
        <route edges="48207221 2742 52573120"/>
    </vehicle>
    <vehicle id="82" depart="53.51">
        <route edges="39348546#0 52573118#0 2755#0"/>
    </vehicle>
    <vehicle id="83" depart="54.16">
        <route edges="133875223#11 133875223#17 984881209 37777462 55290809#0 3441738#0 55290801 -2527#2 4644987#0 55296249#0 gneE91 4231695#0 4231695#3 4231696#1 -4231696#1 -416688557"/>
    </vehicle>
    <vehicle id="84" depart="54.81">
        <route edges="3120967#0 773250139#1 331545472#2 3086259#0 3086261 3091989#1 -2524 30991997#1"/>
    </vehicle>
    <vehicle id="85" depart="55.46">
        <route edges="-3025859#3 -351684503 -351685326 -55290805 34243632#0 133875195#0 133875195#3 55290800 55290807 55290799 984881209 37777462"/>
    </vehicle>
    <vehicle id="86" depart="56.12">
        <route edges="48207221 2742 52573120 55290813#0 -4279571 -175773133 683583893 115353253#0 115353253#1 48206750 -54401052#2 -3024771 -2960931#0 326284103 54401064 192674702#0"/>
    </vehicle>
    <vehicle id="87" depart="56.77">
        <route edges="3120967#0 773250139#1 331545472#2 3086259#0 3086261 3091989#1 -2524 30991997#1"/>
    </vehicle>
    <vehicle id="88" depart="57.42">
        <route edges="-2527#2 4644987#0"/>
    </vehicle>
    <vehicle id="89" depart="58.08">
        <route edges="-133875223#19 -133875223#16 -133875223#10 gneE81 -133875223#4 -133875223#1"/>
    </vehicle>
    <vehicle id="90" depart="58.73">
        <route edges="-133875223#4 -133875223#1 -133875223#0 -4357619 4340722#0 133875244#0 4338446#0"/>
    </vehicle>
    <vehicle id="91" depart="59.38">
        <route edges="-133875236#1 -133875229 -180869463#1 -133875249#2 -133875226#2 -133875226#0 -3381569#3 94820#0 133875252#0 133875252#3 4338448#0 48665005 115952095#0 -546225667#1 -8769288#1 3120967#0 773250139#1 331545472#2 3086259#0 3086261 3091989#1 -2524 30991997#1 1040747475 55296264#1 55290812#0 48207221 2742 52573120 55290813#0"/>
    </vehicle>
    <vehicle id="92" depart="60.03">
        <route edges="32751327 3086252#0 4321650 167283#0 167283#0.164 -55602323#6 -gneE91 -55296249#2 -4644987#1 2527#0 4236439#0 4236439#1 3441067#0 55296262 4479201#0 4346053 3027099#0 505404870#0"/>
    </vehicle>
    <vehicle id="93" depart="60.69">
        <route edges="115353253#1 48206750 -54401052#2 -3024771 -2960931#0 326284103 54401064 984881214 984881212 54401067 gneE72 -133875260#3 -133875262#1 -133875261#1 -3025859#8 -3025859#7 3026118#0 3026118#6"/>
    </vehicle>
    <vehicle id="94" depart="61.34">
        <route edges="-4231695#2 55602323#3 55602323#3.91 884727976#0 gneE92 115952099#2 -30906#3 38619223#0 133875255 133875259#0 133875244#0 133875232#0 3381569#0 133875226#0 133875226#1 133875249#0 180869463#0 133875229 133875236#0 133875236#2 133875245#0 133875245#3 gneE52 gneE52.55 -gneE86"/>
    </vehicle>
    <vehicle id="95" depart="61.99">
        <route edges="4479201#0 4346053 55290810 55290800 55290807 55290799 -133875223#19 -133875223#16 -133875223#10"/>
    </vehicle>
    <vehicle id="96" depart="62.64">
        <route edges="-959553052#4 -959553052#2 -34784840#1 39183706 192668650#2 192668650#3 gneE107 gneE108 3292445#0.4 3292445#3 209#0 55290798#0 210#1 30992002 -3120967#1 8769305 32751327"/>
    </vehicle>
    <vehicle id="97" depart="63.30">
        <route edges="gneE26 gneE43 gneE45 gneE28"/>
    </vehicle>
    <vehicle id="98" depart="63.95">
        <route edges="2748#0 198245314#1 55296262 4479201#0 4346053 55290810 55290800 55290807 55290799 -133875223#19 -133875223#16 -133875223#10 gneE81 -133875223#4 -133875223#1 -133875223#0 -4357619 4340722#0 133875244#0 133875232#0 3381569#0 133875226#0 133875226#1 133875249#0"/>
    </vehicle>
    <vehicle id="99" depart="64.60">
        <route edges="-48586336#2 240290973#0 -58295596#1 -192674701 -279357279#1 326284091 984881212 54401067 gneE73 gneE74"/>
    </vehicle>
    <vehicle id="100" depart="65.25">
        <route edges="683648843 683648842#0 683648842#1 3024957 175773133 3024962 48207559 52030084#0 38964070#0 39348547#1 -3609801#3 2748#0 198245314#1 55296262 4479201#0 4346053 55290810 55290800 55290807 55290799 -133875223#19 -133875223#16 -133875223#10 gneE81 -133875223#4 -133875223#1 -133875223#0 -4357619 4340722#0 133875244#0 4338446#0 133875252#0 gneE97 -141841564#11 -5191097#3 403281810#0 403281808"/>
    </vehicle>
    <vehicle id="101" depart="65.91">
        <route edges="192668650#2 192668650#3 gneE107 gneE108 3292445#0.4 3292445#3 209#0 55290798#0 210#1 30992002 -3120967#1 8769305 309842640#0 39352131#0 39352131#2 39352131#3 837572187#0 837572187#1 837573373#0 837573373#2 837573373#4 444272568#1 -gneE28 -gneE45"/>
    </vehicle>
    <vehicle id="102" depart="66.56">
        <route edges="55290799 984881209 37777462 55290809#0 3441738#0 55290801 -2527#2 4644987#0 55296249#0 gneE91 55602323#3 55602323#3.91 -8769288#1 3120967#0 773250139#1 331545472#2 -210#1 -55290798#2 -209#3 -3292445#8 -3292445#2"/>
    </vehicle>
    <vehicle id="103" depart="67.21">
        <route edges="7985210#1 431533372#0 2756#0 55290812#0 48207221 2742 52573120 55290813#0 -4279571 -175773133 683583893 115353253#0 3024958#0 -677916434 3024961"/>
    </vehicle>
    <vehicle id="104" depart="67.86">
        <route edges="-351684503 -351685326 -55290805 34243632#0 133875195#0 133875195#3 55290800 55290807 55290799 984881209 37777462 55290809#0 3441738#0"/>
    </vehicle>
    <vehicle id="105" depart="68.52">
        <route edges="-34784840#1 39183706 192668650#2 192668650#3 gneE107 gneE108 3292445#0.4 3292445#3 209#0 55290798#0 210#1 30992002 -3120967#1 167257#2 884727976#0 gneE92 115952099#2 -30906#3 38619223#0 133875255 133875259#0 133875244#0 133875232#0 3381569#0 133875226#0 940770422#0 gneE77"/>
    </vehicle>
    <vehicle id="106" depart="69.17">
        <route edges="30992002 -3120967#1 8769305 309842640#0 39352131#0 39352131#2 39352131#3 837572187#0 837572187#1 837573373#0 837573373#2 837573373#4"/>
    </vehicle>
    <vehicle id="107" depart="69.82">
        <route edges="837573373#4 444272568#1 -gneE28"/>
    </vehicle>
    <vehicle id="108" depart="70.47">
        <route edges="48207221 2742 52573120 55290813#0 -4279571 -175773133 683583893 115353253#0 115353253#1 48206750 -54401052#2 -54401052#1 -54401052#0 -54649790 373843895"/>
    </vehicle>
    <vehicle id="109" depart="71.13">
        <route edges="39183706 192668650#2 192668650#3 gneE107 gneE108 3292445#0.4 3292445#3 209#0 55290798#0 210#1 3086259#0 3086261"/>
    </vehicle>
    <vehicle id="110" depart="71.78">
        <route edges="403281810#0"/>
    </vehicle>
    <vehicle id="111" depart="72.43">
        <route edges="-4231695#2 -gneE91 -55296249#2 -4644987#1 2527#0 4236439#0 4236439#1 3441067#0 55296262 4479201#0 4346053 3027099#0 505404870#0"/>
    </vehicle>
    <vehicle id="112" depart="73.08">
        <route edges="3441738#0 55290801 -2527#2 4644987#0 55296249#0 gneE91 55602323#3 55602323#3.91 -8769288#1"/>
    </vehicle>
    <vehicle id="113" depart="73.74">
        <route edges="198245314#1 55296262 197960551 55290809#0 3441738#0 55290801 4236439#0"/>
    </vehicle>
    <vehicle id="114" depart="74.39">
        <route edges="-351684503 -351685326 -55290805 34243632#0 133875195#0 133875195#3 55290800 55290807 55290799 984881209 37777462 55290809#0 3441738#0"/>
    </vehicle>
    <vehicle id="115" depart="75.04">
        <route edges="gneE75 48586837 3024770 54401052#2 414017617 683648842#0 683648842#1 3024957 175773133 3024962 48207559 52030084#0 2765 52573118#0 2755#0 52573119"/>
    </vehicle>
    <vehicle id="116" depart="75.69">
        <route edges="48207221 2742 52573120 55290813#0 -4279571 -175773133 683583893 115353253#0 115353253#1 48206750 -54401052#2 -3024771 -2960931#0 326284103 54401064 192674702#0"/>
    </vehicle>
    <vehicle id="117" depart="76.35">
        <route edges="52030081 52030084#0 38964070#0 50842685#0 50842685#1 2745#0 192671933#0 3025839#0 -133875261#1 -3025859#8 -3025859#7 -3025859#5 -3025859#3"/>
    </vehicle>
    <vehicle id="118" depart="77.00">
        <route edges="-4231696#0 -4231695#2 55602323#3 55602323#3.91 884727976#0"/>
    </vehicle>
    <vehicle id="119" depart="77.65">
        <route edges="-899645883#1 gneE108 gneE109 -192668650#4"/>
    </vehicle>
    <vehicle id="120" depart="78.30">
        <route edges="-3026116#5"/>
    </vehicle>
    <vehicle id="121" depart="78.96">
        <route edges="gneE52 gneE52.55 -gneE51 -404611919#1 gneE25 gneE26 gneE43 gneE45 gneE28 -444272568#2 -444272568#0 -837573373#3"/>
    </vehicle>
    <vehicle id="122" depart="79.61">
        <route edges="gneE26 gneE43 gneE45 gneE28"/>
    </vehicle>
    <vehicle id="123" depart="80.26">
        <route edges="48207221 2742 52573120"/>
    </vehicle>
    <vehicle id="124" depart="80.91">
        <route edges="-4231696#0 -4231695#2 -gneE91 -55296249#2 -4644987#1 2527#0 4236439#0 4236439#1 3441067#0 55296262 4479201#0 4346053 55290810 55290800 3027057"/>
    </vehicle>
    <vehicle id="125" depart="81.57">
        <route edges="30992002 -3120967#1 8769305 309842640#0 39352131#0 39352131#2 39352131#3 837572187#0 837572187#1 837573373#0 837573373#2 837573373#4"/>
    </vehicle>
    <vehicle id="126" depart="82.22">
        <route edges="48207221 2742 52573120 52030081 52030084#0 38964070#0 39348547#1 -3609801#3 2748#0 198245314#1 55296262 4479201#0 4346053 55290810 55290800 55290807 55290799"/>
    </vehicle>
    <vehicle id="127" depart="82.87">
        <route edges="-39352131#2 3086250 4321650 167283#0 167283#0.164 -55602323#6 -gneE91 -55296249#2 -4644987#1 2527#0 4236439#0 4236439#1 3441067#0 -203240967#2 -198245314#0"/>
    </vehicle>
    <vehicle id="128" depart="83.52">
        <route edges="26312537#3 2748#0 198245314#1 55296262 197960551 55290809#0 3441738#0 55290801 -2527#2 4644987#0 55296249#0 gneE91 4231695#0"/>
    </vehicle>
    <vehicle id="129" depart="84.18">
        <route edges="gneE25 gneE26 gneE43 gneE45 gneE28 -444272568#2 -444272568#0"/>
    </vehicle>
    <vehicle id="130" depart="84.83">
        <route edges="52030081 52030084#0 38964070#0 39348547#1 -3609801#3 -26312537#4"/>
    </vehicle>
    <vehicle id="131" depart="85.48">
        <route edges="-gneE45 -gneE43 -gneE26 -gneE25 404611919#0 gneE51 -gneE52 -133875245#3 -133875245#2 -133875236#3 -133875236#1 -133875229 -180869463#1 -133875249#2 -133875226#2 -133875226#0 -3381569#3 94820#0 133875252#0 133875252#3 4338448#0 48665005 115952095#0 -546225667#1 -8769288#1"/>
    </vehicle>
    <vehicle id="132" depart="86.13">
        <route edges="837573373#4 444272568#1 -gneE28 -gneE45 -gneE43 -gneE26 -gneE25 404611919#0 gneE51 -gneE52 -133875245#3 -133875245#2 -133875236#3 -133875236#1 -133875229 -180869463#1 -133875249#2 -133875226#2 -133875226#0 -3381569#3 94820#0 133875252#0 133875252#3 4338448#0 48665005 115952095#0 -546225667#1"/>
    </vehicle>
    <vehicle id="133" depart="86.79">
        <route edges="133875252#0 133875252#3 133875256#0 133875255 4338449#0 4357619 133875223#0 133875223#1 133875223#3 gneE82 133875223#6 133875223#11 133875223#17 984881209 37777462 55290809#0 3441738#0"/>
    </vehicle>
    <vehicle id="134" depart="87.44">
        <route edges="48207221 2742 52573120 52030081 52030084#0 38964070#0 39348547#1 -3609801#3 2748#0 198245314#1 55296262 4479201#0 4346053 55290810 55290800 55290807 55290799"/>
    </vehicle>
    <vehicle id="135" depart="88.09">
        <route edges="209#0"/>
    </vehicle>
    <vehicle id="136" depart="88.74">
        <route edges="55296262 197960551 55290809#0 3441738#0 55290801 -2527#2 4644987#0 55296249#0 gneE91 55602323#3 55602323#3.91 -8769288#1 3120967#0 773250139#1 331545472#2 -210#1 -gneE54"/>
    </vehicle>
    <vehicle id="137" depart="89.40">
        <route edges="-8769288#1 3120967#0 773250139#1 331545472#2 3086259#0 3086261 3091989#1"/>
    </vehicle>
    <vehicle id="138" depart="90.05">
        <route edges="133875252#3 133875256#0 133875255 4338449#0 4357619 133875223#0 133875223#1 133875223#3 gneE82 133875223#6 133875223#11 133875223#17 984881209 37777462 55290809#0 3441738#0 55290801"/>
    </vehicle>
    <vehicle id="139" depart="90.70">
        <route edges="gneE108 3292445#0.4 3292445#3 209#0 55290798#0 210#1 30992002 -3120967#1 167257#2 884727976#0 gneE92 115952099#2 -30906#3 38619223#0 133875255 4338449#0 4357619"/>
    </vehicle>
    <vehicle id="140" depart="91.35">
        <route edges="279357279#1 192674701 58295596#0 -240290973#1 48586336#1 -192674402#2 -192674402#1 -959553052#4 -959553052#2 -34784840#1"/>
    </vehicle>
    <vehicle id="141" depart="92.01">
        <route edges="-2524 30991997#1 1040747475 2757#1 1025513686#0 1025513686#1"/>
    </vehicle>
    <vehicle id="142" depart="92.66">